F0777-1587
  rDOCK(R)          3D
libRbt.so/2013.1/901 2013/11/27
 16 17  0  0  0  0  0  0  0  0999 V2000
  -18.4794   19.8660  -16.5197 C   0  0  0  0  0  0
  -19.1596   19.9874  -15.1943 C   0  0  0  0  0  0
  -19.4793   18.9845  -14.2926 C   0  0  0  0  0  0
  -19.1820   17.5286  -14.4844 C   0  0  0  0  0  0
  -20.1167   19.5341  -13.1203 C   0  0  0  0  0  0
  -20.5520   18.7564  -11.9949 C   0  0  0  0  0  0
  -20.9097   18.0906  -11.1150 N   0  0  0  0  0  0
  -20.2731   20.9080  -13.1708 C   0  0  0  0  0  0
  -19.6288   21.5310  -14.6354 S   0  0  0  0  0  0
  -20.7718   21.7730  -12.2460 N   0  0  0  0  0  0
  -20.7784   23.0179  -12.6061 C   0  0  0  0  0  0
  -21.2574   24.0321  -11.7111 C   0  0  0  0  0  0
  -21.6708   23.9882  -10.3940 C   0  0  0  0  0  0
  -22.0475   25.3066  -10.0434 C   0  0  0  0  0  0
  -21.8421   26.0731  -11.1660 C   0  0  0  0  0  0
  -21.3528   25.3126  -12.1798 O   0  0  0  0  0  0
  1  2  1  0  0  0
  2  3  2  0  0  0
  2  9  1  0  0  0
  3  4  1  0  0  0
  3  5  1  0  0  0
  5  6  1  0  0  0
  5  8  2  0  0  0
  6  7  3  0  0  0
  8  9  1  0  0  0
  8 10  1  0  0  0
 10 11  2  0  0  0
 11 12  1  0  0  0
 12 13  2  0  0  0
 12 16  1  0  0  0
 13 14  1  0  0  0
 14 15  2  0  0  0
 15 16  1  0  0  0
M  END
>  <CHROM.0>
-62.77994078,-73.07310340,-8.72563942,63.96357439,168.34069311,-176.72502133
-65.07312159,-164.49744893

>  <CHROM.1>
179.83952493,5.50779672,-20.39399448,21.55816012,-12.97384554,-0.76561292
1.12647407,-0.25149233

>  <Name>
F0777-1587

>  <RI>
2.52174e+07

>  <Rbt.Current_Directory>
/home/adria/Escritorio/rDock_CMTR_LC/2pxcA_model/inputs_sah

>  <Rbt.Executable>
rbdock ($Id: //depot/dev/client3/rdock/2013.1/src/exe/rbdock.cxx#4 $)

>  <Rbt.Library>
libRbt.so (2013.1, Build901 2013/11/27)

>  <Rbt.Parameter_File>
/home/adria/Escritorio/rDock_2013.1_src/data/scripts/dock.prm

>  <Rbt.Receptor>
sah_rdock.prm

>  <SCORE>
-34.6173

>  <SCORE.INTER>
-12.2721

>  <SCORE.INTER.CONST>
1

>  <SCORE.INTER.POLAR>
-0.835702

>  <SCORE.INTER.REPUL>
0.025628

>  <SCORE.INTER.ROT>
2

>  <SCORE.INTER.VDW>
-16.9588

>  <SCORE.INTER.norm>
-0.767005

>  <SCORE.INTRA>
-21.2034

>  <SCORE.INTRA.DIHEDRAL>
-47.711

>  <SCORE.INTRA.DIHEDRAL.0>
47.9214

>  <SCORE.INTRA.POLAR>
0

>  <SCORE.INTRA.POLAR.0>
0

>  <SCORE.INTRA.REPUL>
0

>  <SCORE.INTRA.REPUL.0>
0

>  <SCORE.INTRA.VDW>
2.65211

>  <SCORE.INTRA.VDW.0>
-0.808333

>  <SCORE.INTRA.norm>
-1.32521

>  <SCORE.RESTR>
0

>  <SCORE.RESTR.CAVITY>
0

>  <SCORE.RESTR.norm>
0

>  <SCORE.SYSTEM>
-1.1418

>  <SCORE.SYSTEM.CONST>
0

>  <SCORE.SYSTEM.DIHEDRAL>
5.4256

>  <SCORE.SYSTEM.POLAR>
-3.86954

>  <SCORE.SYSTEM.REPUL>
0.0386658

>  <SCORE.SYSTEM.VDW>
9.10852

>  <SCORE.SYSTEM.norm>
-0.0713623

>  <SCORE.heavy>
16

>  <SCORE.norm>
-2.16358

$$$$
F0777-1587
  rDOCK(R)          3D
libRbt.so/2013.1/901 2013/11/27
 16 17  0  0  0  0  0  0  0  0999 V2000
  -27.0609   23.4154   -8.9459 C   0  0  0  0  0  0
  -25.9714   23.7722   -9.9049 C   0  0  0  0  0  0
  -26.0484   23.9299  -11.2798 C   0  0  0  0  0  0
  -27.2956   23.7726  -12.0950 C   0  0  0  0  0  0
  -24.7640   24.2971  -11.8258 C   0  0  0  0  0  0
  -24.5175   24.5507  -13.2171 C   0  0  0  0  0  0
  -24.3544   24.7258  -14.3521 N   0  0  0  0  0  0
  -23.7660   24.3910  -10.8720 C   0  0  0  0  0  0
  -24.3949   24.0504   -9.3110 S   0  0  0  0  0  0
  -22.4618   24.7601  -10.9942 N   0  0  0  0  0  0
  -21.7691   24.6991   -9.9006 C   0  0  0  0  0  0
  -20.3870   25.0847   -9.8917 C   0  0  0  0  0  0
  -19.3029   24.6372   -9.1622 C   0  0  0  0  0  0
  -18.1897   25.4062   -9.5777 C   0  0  0  0  0  0
  -18.6616   26.2749  -10.5330 C   0  0  0  0  0  0
  -19.9904   26.0812  -10.7391 O   0  0  0  0  0  0
  1  2  1  0  0  0
  2  3  2  0  0  0
  2  9  1  0  0  0
  3  4  1  0  0  0
  3  5  1  0  0  0
  5  6  1  0  0  0
  5  8  2  0  0  0
  6  7  3  0  0  0
  8  9  1  0  0  0
  8 10  1  0  0  0
 10 11  2  0  0  0
 11 12  1  0  0  0
 12 13  2  0  0  0
 12 16  1  0  0  0
 13 14  1  0  0  0
 14 15  2  0  0  0
 15 16  1  0  0  0
M  END
>  <CHROM.0>
-177.48670659,-73.89336908,-167.46000429,63.30226618,-29.95478602,-58.57689242
83.30410787,-162.58697303

>  <CHROM.1>
-177.74220768,-147.72278924,-23.17330783,24.57828494,-10.66649853,3.03374664
-0.25485938,-1.39148428

>  <Name>
F0777-1587

>  <RI>
2.52174e+07

>  <Rbt.Current_Directory>
/home/adria/Escritorio/rDock_CMTR_LC/2pxcA_model/inputs_sah

>  <Rbt.Executable>
rbdock ($Id: //depot/dev/client3/rdock/2013.1/src/exe/rbdock.cxx#4 $)

>  <Rbt.Library>
libRbt.so (2013.1, Build901 2013/11/27)

>  <Rbt.Parameter_File>
/home/adria/Escritorio/rDock_2013.1_src/data/scripts/dock.prm

>  <Rbt.Receptor>
sah_rdock.prm

>  <SCORE>
-34.0797

>  <SCORE.INTER>
-7.47136

>  <SCORE.INTER.CONST>
1

>  <SCORE.INTER.POLAR>
0

>  <SCORE.INTER.REPUL>
0.04127

>  <SCORE.INTER.ROT>
2

>  <SCORE.INTER.VDW>
-15.0777

>  <SCORE.INTER.norm>
-0.46696

>  <SCORE.INTRA>
-19.5854

>  <SCORE.INTRA.DIHEDRAL>
-44.3477

>  <SCORE.INTRA.DIHEDRAL.0>
47.9214

>  <SCORE.INTRA.POLAR>
0

>  <SCORE.INTRA.POLAR.0>
0

>  <SCORE.INTRA.REPUL>
0

>  <SCORE.INTRA.REPUL.0>
0

>  <SCORE.INTRA.VDW>
2.58845

>  <SCORE.INTRA.VDW.0>
-0.808333

>  <SCORE.INTRA.norm>
-1.22409

>  <SCORE.RESTR>
0.037066

>  <SCORE.RESTR.CAVITY>
0.037066

>  <SCORE.RESTR.norm>
0.00231662

>  <SCORE.SYSTEM>
-7.06005

>  <SCORE.SYSTEM.CONST>
0

>  <SCORE.SYSTEM.DIHEDRAL>
6.59562

>  <SCORE.SYSTEM.POLAR>
-3.95682

>  <SCORE.SYSTEM.REPUL>
0.0400917

>  <SCORE.SYSTEM.VDW>
2.89485

>  <SCORE.SYSTEM.norm>
-0.441253

>  <SCORE.heavy>
16

>  <SCORE.norm>
-2.12998

$$$$
F0777-1587
  rDOCK(R)          3D
libRbt.so/2013.1/901 2013/11/27
 16 17  0  0  0  0  0  0  0  0999 V2000
  -20.1604   25.6914  -10.3000 C   0  0  0  0  0  0
  -20.8810   24.8260  -11.2828 C   0  0  0  0  0  0
  -22.0300   25.1101  -12.0040 C   0  0  0  0  0  0
  -22.7924   26.3981  -11.9348 C   0  0  0  0  0  0
  -22.3839   24.0037  -12.8602 C   0  0  0  0  0  0
  -23.5128   23.9940  -13.7469 C   0  0  0  0  0  0
  -24.4471   24.0168  -14.4338 N   0  0  0  0  0  0
  -21.5202   22.9276  -12.7558 C   0  0  0  0  0  0
  -20.2695   23.2702  -11.6303 S   0  0  0  0  0  0
  -21.4968   21.7472  -13.4326 N   0  0  0  0  0  0
  -20.5141   20.9591  -13.1282 C   0  0  0  0  0  0
  -20.3636   19.6943  -13.7888 C   0  0  0  0  0  0
  -21.1009   19.0683  -14.7749 C   0  0  0  0  0  0
  -20.4755   17.8224  -15.0191 C   0  0  0  0  0  0
  -19.3972   17.7638  -14.1683 C   0  0  0  0  0  0
  -19.3136   18.8982  -13.4256 O   0  0  0  0  0  0
  1  2  1  0  0  0
  2  3  2  0  0  0
  2  9  1  0  0  0
  3  4  1  0  0  0
  3  5  1  0  0  0
  5  6  1  0  0  0
  5  8  2  0  0  0
  6  7  3  0  0  0
  8  9  1  0  0  0
  8 10  1  0  0  0
 10 11  2  0  0  0
 11 12  1  0  0  0
 12 13  2  0  0  0
 12 16  1  0  0  0
 13 14  1  0  0  0
 14 15  2  0  0  0
 15 16  1  0  0  0
M  END
>  <CHROM.0>
-60.28312611,-72.55218661,-9.22841502,63.44726995,-31.81903521,59.75255481
-156.90081391,-163.46339578

>  <CHROM.1>
177.56722810,0.20590874,-21.18588289,22.34275727,-12.91292362,-1.88591050
0.58774671,-2.62472962

>  <Name>
F0777-1587

>  <RI>
2.52174e+07

>  <Rbt.Current_Directory>
/home/adria/Escritorio/rDock_CMTR_LC/2pxcA_model/inputs_sah

>  <Rbt.Executable>
rbdock ($Id: //depot/dev/client3/rdock/2013.1/src/exe/rbdock.cxx#4 $)

>  <Rbt.Library>
libRbt.so (2013.1, Build901 2013/11/27)

>  <Rbt.Parameter_File>
/home/adria/Escritorio/rDock_2013.1_src/data/scripts/dock.prm

>  <Rbt.Receptor>
sah_rdock.prm

>  <SCORE>
-37.7013

>  <SCORE.INTER>
-8.82267

>  <SCORE.INTER.CONST>
1

>  <SCORE.INTER.POLAR>
0

>  <SCORE.INTER.REPUL>
0

>  <SCORE.INTER.ROT>
2

>  <SCORE.INTER.VDW>
-16.2227

>  <SCORE.INTER.norm>
-0.551417

>  <SCORE.INTRA>
-21.2605

>  <SCORE.INTRA.DIHEDRAL>
-47.8618

>  <SCORE.INTRA.DIHEDRAL.0>
47.9214

>  <SCORE.INTRA.POLAR>
0

>  <SCORE.INTRA.POLAR.0>
0

>  <SCORE.INTRA.REPUL>
0

>  <SCORE.INTRA.REPUL.0>
0

>  <SCORE.INTRA.VDW>
2.67034

>  <SCORE.INTRA.VDW.0>
-0.808333

>  <SCORE.INTRA.norm>
-1.32878

>  <SCORE.RESTR>
0

>  <SCORE.RESTR.CAVITY>
0

>  <SCORE.RESTR.norm>
0

>  <SCORE.SYSTEM>
-7.61809

>  <SCORE.SYSTEM.CONST>
0

>  <SCORE.SYSTEM.DIHEDRAL>
9.01308

>  <SCORE.SYSTEM.POLAR>
-4.64937

>  <SCORE.SYSTEM.REPUL>
0.037726

>  <SCORE.SYSTEM.VDW>
3.49459

>  <SCORE.SYSTEM.norm>
-0.476131

>  <SCORE.heavy>
16

>  <SCORE.norm>
-2.35633

$$$$
F0777-1587
  rDOCK(R)          3D
libRbt.so/2013.1/901 2013/11/27
 16 17  0  0  0  0  0  0  0  0999 V2000
  -23.3676   16.6531  -13.2112 C   0  0  0  0  0  0
  -22.4622   17.8004  -12.8985 C   0  0  0  0  0  0
  -21.1370   17.9791  -13.2633 C   0  0  0  0  0  0
  -20.3330   17.0158  -14.0820 C   0  0  0  0  0  0
  -20.6359   19.2398  -12.7711 C   0  0  0  0  0  0
  -19.3044   19.7264  -12.9971 C   0  0  0  0  0  0
  -18.2135   20.0740  -13.1827 N   0  0  0  0  0  0
  -21.5707   19.9604  -12.0490 C   0  0  0  0  0  0
  -23.0623   19.1122  -11.9851 S   0  0  0  0  0  0
  -21.4869   21.1959  -11.4844 N   0  0  0  0  0  0
  -22.5690   21.6081  -10.9024 C   0  0  0  0  0  0
  -22.6174   22.9046  -10.2894 C   0  0  0  0  0  0
  -23.5623   23.5196   -9.4915 C   0  0  0  0  0  0
  -23.0649   24.8116   -9.1971 C   0  0  0  0  0  0
  -21.8496   24.9062   -9.8327 C   0  0  0  0  0  0
  -21.5634   23.7517  -10.4889 O   0  0  0  0  0  0
  1  2  1  0  0  0
  2  3  2  0  0  0
  2  9  1  0  0  0
  3  4  1  0  0  0
  3  5  1  0  0  0
  5  6  1  0  0  0
  5  8  2  0  0  0
  6  7  3  0  0  0
  8  9  1  0  0  0
  8 10  1  0  0  0
 10 11  2  0  0  0
 11 12  1  0  0  0
 12 13  2  0  0  0
 12 16  1  0  0  0
 13 14  1  0  0  0
 14 15  2  0  0  0
 15 16  1  0  0  0
M  END
>  <CHROM.0>
-175.62212650,-73.83716858,-8.19643298,66.89071390,168.22085474,-59.54202425
-156.52835360,-163.89173891

>  <CHROM.1>
177.94429825,-171.62116215,-21.78584693,20.51561306,-11.78197714,1.39725150
-0.31054974,-2.68878734

>  <Name>
F0777-1587

>  <RI>
2.52174e+07

>  <Rbt.Current_Directory>
/home/adria/Escritorio/rDock_CMTR_LC/2pxcA_model/inputs_sah

>  <Rbt.Executable>
rbdock ($Id: //depot/dev/client3/rdock/2013.1/src/exe/rbdock.cxx#4 $)

>  <Rbt.Library>
libRbt.so (2013.1, Build901 2013/11/27)

>  <Rbt.Parameter_File>
/home/adria/Escritorio/rDock_2013.1_src/data/scripts/dock.prm

>  <Rbt.Receptor>
sah_rdock.prm

>  <SCORE>
-27.1632

>  <SCORE.INTER>
-3.78084

>  <SCORE.INTER.CONST>
1

>  <SCORE.INTER.POLAR>
0

>  <SCORE.INTER.REPUL>
0

>  <SCORE.INTER.ROT>
2

>  <SCORE.INTER.VDW>
-11.1808

>  <SCORE.INTER.norm>
-0.236302

>  <SCORE.INTRA>
-21.1259

>  <SCORE.INTRA.DIHEDRAL>
-47.6201

>  <SCORE.INTRA.DIHEDRAL.0>
47.9214

>  <SCORE.INTRA.POLAR>
0

>  <SCORE.INTRA.POLAR.0>
0

>  <SCORE.INTRA.REPUL>
0

>  <SCORE.INTRA.REPUL.0>
0

>  <SCORE.INTRA.VDW>
2.68413

>  <SCORE.INTRA.VDW.0>
-0.808333

>  <SCORE.INTRA.norm>
-1.32037

>  <SCORE.RESTR>
0

>  <SCORE.RESTR.CAVITY>
0

>  <SCORE.RESTR.norm>
0

>  <SCORE.SYSTEM>
-2.25647

>  <SCORE.SYSTEM.CONST>
0

>  <SCORE.SYSTEM.DIHEDRAL>
6.897

>  <SCORE.SYSTEM.POLAR>
-4.58691

>  <SCORE.SYSTEM.REPUL>
0.0399961

>  <SCORE.SYSTEM.VDW>
9.69053

>  <SCORE.SYSTEM.norm>
-0.14103

>  <SCORE.heavy>
16

>  <SCORE.norm>
-1.6977

$$$$
F0777-1587
  rDOCK(R)          3D
libRbt.so/2013.1/901 2013/11/27
 16 17  0  0  0  0  0  0  0  0999 V2000
  -22.0469   22.5494  -12.6497 C   0  0  0  0  0  0
  -21.0061   21.6282  -13.1994 C   0  0  0  0  0  0
  -20.8495   20.2696  -12.9745 C   0  0  0  0  0  0
  -21.7392   19.4334  -12.1061 C   0  0  0  0  0  0
  -19.7237   19.7542  -13.7158 C   0  0  0  0  0  0
  -19.3101   18.3795  -13.7096 C   0  0  0  0  0  0
  -18.9945   17.2645  -13.6606 N   0  0  0  0  0  0
  -19.0622   20.7189  -14.4551 C   0  0  0  0  0  0
  -19.8211   22.2470  -14.2616 S   0  0  0  0  0  0
  -18.0077   20.6066  -15.3080 N   0  0  0  0  0  0
  -17.4847   19.4232  -15.3816 C   0  0  0  0  0  0
  -16.3517   19.1792  -16.2277 C   0  0  0  0  0  0
  -15.5901   18.0499  -16.4567 C   0  0  0  0  0  0
  -14.5913   18.4173  -17.3897 C   0  0  0  0  0  0
  -14.8035   19.7459  -17.6721 C   0  0  0  0  0  0
  -15.8751   20.2150  -16.9813 O   0  0  0  0  0  0
  1  2  1  0  0  0
  2  3  2  0  0  0
  2  9  1  0  0  0
  3  4  1  0  0  0
  3  5  1  0  0  0
  5  6  1  0  0  0
  5  8  2  0  0  0
  6  7  3  0  0  0
  8  9  1  0  0  0
  8 10  1  0  0  0
 10 11  2  0  0  0
 11 12  1  0  0  0
 12 13  2  0  0  0
 12 16  1  0  0  0
 13 14  1  0  0  0
 14 15  2  0  0  0
 15 16  1  0  0  0
M  END
>  <CHROM.0>
-178.83872422,-74.66179499,73.20667969,65.03711237,168.71053340,-56.36221043
83.52866655,-161.66523760

>  <CHROM.1>
-4.71198396,177.70101706,-18.56947279,20.07735437,-14.72160911,-3.00158745
-0.65192284,2.88607351

>  <Name>
F0777-1587

>  <RI>
2.52174e+07

>  <Rbt.Current_Directory>
/home/adria/Escritorio/rDock_CMTR_LC/2pxcA_model/inputs_sah

>  <Rbt.Executable>
rbdock ($Id: //depot/dev/client3/rdock/2013.1/src/exe/rbdock.cxx#4 $)

>  <Rbt.Library>
libRbt.so (2013.1, Build901 2013/11/27)

>  <Rbt.Parameter_File>
/home/adria/Escritorio/rDock_2013.1_src/data/scripts/dock.prm

>  <Rbt.Receptor>
sah_rdock.prm

>  <SCORE>
-39.0774

>  <SCORE.INTER>
-14.9035

>  <SCORE.INTER.CONST>
1

>  <SCORE.INTER.POLAR>
-1.48286

>  <SCORE.INTER.REPUL>
0

>  <SCORE.INTER.ROT>
2

>  <SCORE.INTER.VDW>
-17.2617

>  <SCORE.INTER.norm>
-0.931466

>  <SCORE.INTRA>
-21.743

>  <SCORE.INTRA.DIHEDRAL>
-47.7374

>  <SCORE.INTRA.DIHEDRAL.0>
47.9214

>  <SCORE.INTRA.POLAR>
0

>  <SCORE.INTRA.POLAR.0>
0

>  <SCORE.INTRA.REPUL>
0

>  <SCORE.INTRA.REPUL.0>
0

>  <SCORE.INTRA.VDW>
2.12571

>  <SCORE.INTRA.VDW.0>
-0.808333

>  <SCORE.INTRA.norm>
-1.35894

>  <SCORE.RESTR>
0

>  <SCORE.RESTR.CAVITY>
0

>  <SCORE.RESTR.norm>
0

>  <SCORE.SYSTEM>
-2.43093

>  <SCORE.SYSTEM.CONST>
0

>  <SCORE.SYSTEM.DIHEDRAL>
3.8748

>  <SCORE.SYSTEM.POLAR>
-3.97836

>  <SCORE.SYSTEM.REPUL>
0.0413671

>  <SCORE.SYSTEM.VDW>
8.95126

>  <SCORE.SYSTEM.norm>
-0.151933

>  <SCORE.heavy>
16

>  <SCORE.norm>
-2.44234

$$$$
F0777-1587
  rDOCK(R)          3D
libRbt.so/2013.1/901 2013/11/27
 16 17  0  0  0  0  0  0  0  0999 V2000
  -21.9248   19.5732  -11.1690 C   0  0  0  0  0  0
  -20.9068   19.7972  -12.2403 C   0  0  0  0  0  0
  -20.6272   20.9630  -12.9358 C   0  0  0  0  0  0
  -21.3192   22.2756  -12.7278 C   0  0  0  0  0  0
  -19.5525   20.7533  -13.8758 C   0  0  0  0  0  0
  -19.0161   21.7715  -14.7338 C   0  0  0  0  0  0
  -18.6255   22.6161  -15.4263 N   0  0  0  0  0  0
  -19.0670   19.4575  -13.8779 C   0  0  0  0  0  0
  -19.9059   18.5014  -12.7244 S   0  0  0  0  0  0
  -18.0386   18.9026  -14.5756 N   0  0  0  0  0  0
  -17.4666   19.6911  -15.4303 C   0  0  0  0  0  0
  -16.3844   19.2186  -16.2457 C   0  0  0  0  0  0
  -15.7724   17.9850  -16.3525 C   0  0  0  0  0  0
  -14.7485   18.1232  -17.3199 C   0  0  0  0  0  0
  -14.7976   19.4303  -17.7429 C   0  0  0  0  0  0
  -15.7930   20.1006  -17.1061 O   0  0  0  0  0  0
  1  2  1  0  0  0
  2  3  2  0  0  0
  2  9  1  0  0  0
  3  4  1  0  0  0
  3  5  1  0  0  0
  5  6  1  0  0  0
  5  8  2  0  0  0
  6  7  3  0  0  0
  8  9  1  0  0  0
  8 10  1  0  0  0
 10 11  2  0  0  0
 11 12  1  0  0  0
 12 13  2  0  0  0
 12 16  1  0  0  0
 13 14  1  0  0  0
 14 15  2  0  0  0
 15 16  1  0  0  0
M  END
>  <CHROM.0>
-60.16612026,-73.38552218,73.11787725,63.97943789,-30.05782265,-176.41953295
83.56188225,-162.20045593

>  <CHROM.1>
-4.31919443,1.57383579,-18.49836429,19.84404403,-14.50051525,-3.07123456
0.71710172,-0.35075978

>  <Name>
F0777-1587

>  <RI>
2.52174e+07

>  <Rbt.Current_Directory>
/home/adria/Escritorio/rDock_CMTR_LC/2pxcA_model/inputs_sah

>  <Rbt.Executable>
rbdock ($Id: //depot/dev/client3/rdock/2013.1/src/exe/rbdock.cxx#4 $)

>  <Rbt.Library>
libRbt.so (2013.1, Build901 2013/11/27)

>  <Rbt.Parameter_File>
/home/adria/Escritorio/rDock_2013.1_src/data/scripts/dock.prm

>  <Rbt.Receptor>
sah_rdock.prm

>  <SCORE>
-42.0905

>  <SCORE.INTER>
-12.568

>  <SCORE.INTER.CONST>
1

>  <SCORE.INTER.POLAR>
-0.73726

>  <SCORE.INTER.REPUL>
0

>  <SCORE.INTER.ROT>
2

>  <SCORE.INTER.VDW>
-17.4613

>  <SCORE.INTER.norm>
-0.7855

>  <SCORE.INTRA>
-21.7457

>  <SCORE.INTRA.DIHEDRAL>
-47.7749

>  <SCORE.INTRA.DIHEDRAL.0>
47.9214

>  <SCORE.INTRA.POLAR>
0

>  <SCORE.INTRA.POLAR.0>
0

>  <SCORE.INTRA.REPUL>
0

>  <SCORE.INTRA.REPUL.0>
0

>  <SCORE.INTRA.VDW>
2.14171

>  <SCORE.INTRA.VDW.0>
-0.808333

>  <SCORE.INTRA.norm>
-1.35911

>  <SCORE.RESTR>
0

>  <SCORE.RESTR.CAVITY>
0

>  <SCORE.RESTR.norm>
0

>  <SCORE.SYSTEM>
-7.77674

>  <SCORE.SYSTEM.CONST>
0

>  <SCORE.SYSTEM.DIHEDRAL>
6.60879

>  <SCORE.SYSTEM.POLAR>
-4.08864

>  <SCORE.SYSTEM.REPUL>
0.0392167

>  <SCORE.SYSTEM.VDW>
2.62414

>  <SCORE.SYSTEM.norm>
-0.486046

>  <SCORE.heavy>
16

>  <SCORE.norm>
-2.63066

$$$$
F0777-1587
  rDOCK(R)          3D
libRbt.so/2013.1/901 2013/11/27
 16 17  0  0  0  0  0  0  0  0999 V2000
  -21.3970   19.6483  -11.4391 C   0  0  0  0  0  0
  -20.4114   19.3045  -12.5089 C   0  0  0  0  0  0
  -20.4085   18.2119  -13.3618 C   0  0  0  0  0  0
  -21.4435   17.1287  -13.3753 C   0  0  0  0  0  0
  -19.2830   18.2690  -14.2633 C   0  0  0  0  0  0
  -19.0093   17.2937  -15.2804 C   0  0  0  0  0  0
  -18.8104   16.4728  -16.0753 N   0  0  0  0  0  0
  -18.4721   19.3723  -14.0635 C   0  0  0  0  0  0
  -19.0894   20.3473  -12.7920 S   0  0  0  0  0  0
  -17.3686   19.7895  -14.7419 N   0  0  0  0  0  0
  -17.0079   19.0269  -15.7256 C   0  0  0  0  0  0
  -15.8456   19.3446  -16.5049 C   0  0  0  0  0  0
  -14.9642   20.4073  -16.4666 C   0  0  0  0  0  0
  -14.0155   20.1839  -17.4929 C   0  0  0  0  0  0
  -14.3755   19.0012  -18.0941 C   0  0  0  0  0  0
  -15.4774   18.4782  -17.4959 O   0  0  0  0  0  0
  1  2  1  0  0  0
  2  3  2  0  0  0
  2  9  1  0  0  0
  3  4  1  0  0  0
  3  5  1  0  0  0
  5  6  1  0  0  0
  5  8  2  0  0  0
  6  7  3  0  0  0
  8  9  1  0  0  0
  8 10  1  0  0  0
 10 11  2  0  0  0
 11 12  1  0  0  0
 12 13  2  0  0  0
 12 16  1  0  0  0
 13 14  1  0  0  0
 14 15  2  0  0  0
 15 16  1  0  0  0
M  END
>  <CHROM.0>
-65.21734323,64.67815040,76.33112800,65.92294692,-29.91544524,61.28462034
-37.48361876,-164.56405674

>  <CHROM.1>
-0.77794382,-2.75635632,-18.05920981,18.99890320,-14.80743108,-2.79472946
-0.60638232,-2.47455070

>  <Name>
F0777-1587

>  <RI>
2.52174e+07

>  <Rbt.Current_Directory>
/home/adria/Escritorio/rDock_CMTR_LC/2pxcA_model/inputs_sah

>  <Rbt.Executable>
rbdock ($Id: //depot/dev/client3/rdock/2013.1/src/exe/rbdock.cxx#4 $)

>  <Rbt.Library>
libRbt.so (2013.1, Build901 2013/11/27)

>  <Rbt.Parameter_File>
/home/adria/Escritorio/rDock_2013.1_src/data/scripts/dock.prm

>  <Rbt.Receptor>
sah_rdock.prm

>  <SCORE>
-41.403

>  <SCORE.INTER>
-12.3349

>  <SCORE.INTER.CONST>
1

>  <SCORE.INTER.POLAR>
0

>  <SCORE.INTER.REPUL>
0

>  <SCORE.INTER.ROT>
2

>  <SCORE.INTER.VDW>
-19.7349

>  <SCORE.INTER.norm>
-0.770932

>  <SCORE.INTRA>
-21.7514

>  <SCORE.INTRA.DIHEDRAL>
-47.8196

>  <SCORE.INTRA.DIHEDRAL.0>
47.9214

>  <SCORE.INTRA.POLAR>
0

>  <SCORE.INTRA.POLAR.0>
0

>  <SCORE.INTRA.REPUL>
0

>  <SCORE.INTRA.REPUL.0>
0

>  <SCORE.INTRA.VDW>
2.15843

>  <SCORE.INTRA.VDW.0>
-0.808333

>  <SCORE.INTRA.norm>
-1.35946

>  <SCORE.RESTR>
0

>  <SCORE.RESTR.CAVITY>
0

>  <SCORE.RESTR.norm>
0

>  <SCORE.SYSTEM>
-7.31668

>  <SCORE.SYSTEM.CONST>
0

>  <SCORE.SYSTEM.DIHEDRAL>
6.10433

>  <SCORE.SYSTEM.POLAR>
-3.74855

>  <SCORE.SYSTEM.VDW>
2.37622

>  <SCORE.SYSTEM.norm>
-0.457292

>  <SCORE.heavy>
16

>  <SCORE.norm>
-2.58768

$$$$
F0777-1587
  rDOCK(R)          3D
libRbt.so/2013.1/901 2013/11/27
 16 17  0  0  0  0  0  0  0  0999 V2000
  -22.3917   22.4247  -12.5629 C   0  0  0  0  0  0
  -21.2954   21.5453  -13.0716 C   0  0  0  0  0  0
  -21.1195   20.1843  -12.8772 C   0  0  0  0  0  0
  -22.0413   19.3013  -12.0926 C   0  0  0  0  0  0
  -19.9363   19.7183  -13.5596 C   0  0  0  0  0  0
  -19.4897   18.3540  -13.5673 C   0  0  0  0  0  0
  -19.1501   17.2455  -13.5309 N   0  0  0  0  0  0
  -19.2536   20.7204  -14.2262 C   0  0  0  0  0  0
  -20.0613   22.2238  -14.0369 S   0  0  0  0  0  0
  -18.1446   20.6590  -15.0126 N   0  0  0  0  0  0
  -17.6099   19.4831  -15.1167 C   0  0  0  0  0  0
  -16.4221   19.2900  -15.8984 C   0  0  0  0  0  0
  -15.5602   20.1777  -16.5122 C   0  0  0  0  0  0
  -14.5670   19.3999  -17.1540 C   0  0  0  0  0  0
  -14.8833   18.0876  -16.8937 C   0  0  0  0  0  0
  -16.0000   18.0098  -16.1240 O   0  0  0  0  0  0
  1  2  1  0  0  0
  2  3  2  0  0  0
  2  9  1  0  0  0
  3  4  1  0  0  0
  3  5  1  0  0  0
  5  6  1  0  0  0
  5  8  2  0  0  0
  6  7  3  0  0  0
  8  9  1  0  0  0
  8 10  1  0  0  0
 10 11  2  0  0  0
 11 12  1  0  0  0
 12 13  2  0  0  0
 12 16  1  0  0  0
 13 14  1  0  0  0
 14 15  2  0  0  0
 15 16  1  0  0  0
M  END
>  <CHROM.0>
-59.01449490,67.17790558,72.73485208,62.75241369,-30.03703707,-177.73991564
-156.62376184,-160.36569469

>  <CHROM.1>
-2.90550091,8.50429643,-18.74343212,19.98554698,-14.47276699,-2.93523494
-0.59112266,2.93974278

>  <Name>
F0777-1587

>  <RI>
2.52174e+07

>  <Rbt.Current_Directory>
/home/adria/Escritorio/rDock_CMTR_LC/2pxcA_model/inputs_sah

>  <Rbt.Executable>
rbdock ($Id: //depot/dev/client3/rdock/2013.1/src/exe/rbdock.cxx#4 $)

>  <Rbt.Library>
libRbt.so (2013.1, Build901 2013/11/27)

>  <Rbt.Parameter_File>
/home/adria/Escritorio/rDock_2013.1_src/data/scripts/dock.prm

>  <Rbt.Receptor>
sah_rdock.prm

>  <SCORE>
-42.0983

>  <SCORE.INTER>
-12.8439

>  <SCORE.INTER.CONST>
1

>  <SCORE.INTER.POLAR>
-0.824621

>  <SCORE.INTER.REPUL>
0

>  <SCORE.INTER.ROT>
2

>  <SCORE.INTER.VDW>
-17.4402

>  <SCORE.INTER.norm>
-0.802746

>  <SCORE.INTRA>
-21.6484

>  <SCORE.INTRA.DIHEDRAL>
-47.5999

>  <SCORE.INTRA.DIHEDRAL.0>
47.9214

>  <SCORE.INTRA.POLAR>
0

>  <SCORE.INTRA.POLAR.0>
0

>  <SCORE.INTRA.REPUL>
0

>  <SCORE.INTRA.REPUL.0>
0

>  <SCORE.INTRA.VDW>
2.1515

>  <SCORE.INTRA.VDW.0>
-0.808333

>  <SCORE.INTRA.norm>
-1.35303

>  <SCORE.RESTR>
0

>  <SCORE.RESTR.CAVITY>
0

>  <SCORE.RESTR.norm>
0

>  <SCORE.SYSTEM>
-7.60596

>  <SCORE.SYSTEM.CONST>
0

>  <SCORE.SYSTEM.DIHEDRAL>
6.01491

>  <SCORE.SYSTEM.POLAR>
-3.8319

>  <SCORE.SYSTEM.VDW>
2.41502

>  <SCORE.SYSTEM.norm>
-0.475373

>  <SCORE.heavy>
16

>  <SCORE.norm>
-2.63115

$$$$
F0777-1587
  rDOCK(R)          3D
libRbt.so/2013.1/901 2013/11/27
 16 17  0  0  0  0  0  0  0  0999 V2000
  -17.9074   20.1733  -16.7346 C   0  0  0  0  0  0
  -18.7361   20.2766  -15.4950 C   0  0  0  0  0  0
  -19.0910   19.2731  -14.6074 C   0  0  0  0  0  0
  -18.6851   17.8358  -14.7270 C   0  0  0  0  0  0
  -19.8868   19.8033  -13.5265 C   0  0  0  0  0  0
  -20.3950   19.0215  -12.4352 C   0  0  0  0  0  0
  -20.8060   18.3514  -11.5822 N   0  0  0  0  0  0
  -20.1211   21.1631  -13.6301 C   0  0  0  0  0  0
  -19.3585   21.7975  -15.0317 S   0  0  0  0  0  0
  -20.7715   22.0122  -12.7885 N   0  0  0  0  0  0
  -20.9162   23.2212  -13.2323 C   0  0  0  0  0  0
  -21.5643   24.2186  -12.4297 C   0  0  0  0  0  0
  -21.8334   24.2908  -11.0769 C   0  0  0  0  0  0
  -22.5114   25.5148  -10.8635 C   0  0  0  0  0  0
  -22.6151   26.1132  -12.0968 C   0  0  0  0  0  0
  -22.0345   25.3411  -13.0519 O   0  0  0  0  0  0
  1  2  1  0  0  0
  2  3  2  0  0  0
  2  9  1  0  0  0
  3  4  1  0  0  0
  3  5  1  0  0  0
  5  6  1  0  0  0
  5  8  2  0  0  0
  6  7  3  0  0  0
  8  9  1  0  0  0
  8 10  1  0  0  0
 10 11  2  0  0  0
 11 12  1  0  0  0
 12 13  2  0  0  0
 12 16  1  0  0  0
 13 14  1  0  0  0
 14 15  2  0  0  0
 15 16  1  0  0  0
M  END
>  <CHROM.0>
40.79176504,-168.57996105,-9.77882562,63.06505526,-30.41017500,-59.01625636
-37.39181638,-160.65762916

>  <CHROM.1>
-174.45820439,18.26210827,-20.36006703,21.79144685,-13.49159342,-0.63727102
0.99795386,-0.40223544

>  <Name>
F0777-1587

>  <RI>
2.52174e+07

>  <Rbt.Current_Directory>
/home/adria/Escritorio/rDock_CMTR_LC/2pxcA_model/inputs_sah

>  <Rbt.Executable>
rbdock ($Id: //depot/dev/client3/rdock/2013.1/src/exe/rbdock.cxx#4 $)

>  <Rbt.Library>
libRbt.so (2013.1, Build901 2013/11/27)

>  <Rbt.Parameter_File>
/home/adria/Escritorio/rDock_2013.1_src/data/scripts/dock.prm

>  <Rbt.Receptor>
sah_rdock.prm

>  <SCORE>
-35.3337

>  <SCORE.INTER>
-13.0843

>  <SCORE.INTER.CONST>
1

>  <SCORE.INTER.POLAR>
-0.636155

>  <SCORE.INTER.REPUL>
0.000204941

>  <SCORE.INTER.ROT>
2

>  <SCORE.INTER.VDW>
-18.3224

>  <SCORE.INTER.norm>
-0.817767

>  <SCORE.INTRA>
-20.4267

>  <SCORE.INTRA.DIHEDRAL>
-45.9239

>  <SCORE.INTRA.DIHEDRAL.0>
47.9214

>  <SCORE.INTRA.POLAR>
0

>  <SCORE.INTRA.POLAR.0>
0

>  <SCORE.INTRA.REPUL>
0

>  <SCORE.INTRA.REPUL.0>
0

>  <SCORE.INTRA.VDW>
2.53522

>  <SCORE.INTRA.VDW.0>
-0.808333

>  <SCORE.INTRA.norm>
-1.27667

>  <SCORE.RESTR>
0

>  <SCORE.RESTR.CAVITY>
0

>  <SCORE.RESTR.norm>
0

>  <SCORE.SYSTEM>
-1.82268

>  <SCORE.SYSTEM.CONST>
0

>  <SCORE.SYSTEM.DIHEDRAL>
10.8848

>  <SCORE.SYSTEM.POLAR>
-4.21057

>  <SCORE.SYSTEM.REPUL>
0.120515

>  <SCORE.SYSTEM.VDW>
6.44828

>  <SCORE.SYSTEM.norm>
-0.113917

>  <SCORE.heavy>
16

>  <SCORE.norm>
-2.20835

$$$$
F0777-1587
  rDOCK(R)          3D
libRbt.so/2013.1/901 2013/11/27
 16 17  0  0  0  0  0  0  0  0999 V2000
  -14.1227   19.3755  -18.1993 C   0  0  0  0  0  0
  -15.2635   18.9392  -17.3377 C   0  0  0  0  0  0
  -15.8269   17.6779  -17.2241 C   0  0  0  0  0  0
  -15.3712   16.4619  -17.9715 C   0  0  0  0  0  0
  -16.9019   17.6821  -16.2613 C   0  0  0  0  0  0
  -17.6738   16.5258  -15.9036 C   0  0  0  0  0  0
  -18.2890   15.5736  -15.6582 N   0  0  0  0  0  0
  -17.1292   18.9236  -15.6943 C   0  0  0  0  0  0
  -16.0240   20.0794  -16.3195 S   0  0  0  0  0  0
  -18.0057   19.3027  -14.7246 N   0  0  0  0  0  0
  -18.7645   18.3557  -14.2697 C   0  0  0  0  0  0
  -19.7475   18.6313  -13.2613 C   0  0  0  0  0  0
  -20.1619   19.8064  -12.6654 C   0  0  0  0  0  0
  -21.1595   19.4539  -11.7253 C   0  0  0  0  0  0
  -21.2921   18.0879  -11.8042 C   0  0  0  0  0  0
  -20.4485   17.5801  -12.7402 O   0  0  0  0  0  0
  1  2  1  0  0  0
  2  3  2  0  0  0
  2  9  1  0  0  0
  3  4  1  0  0  0
  3  5  1  0  0  0
  5  6  1  0  0  0
  5  8  2  0  0  0
  6  7  3  0  0  0
  8  9  1  0  0  0
  8 10  1  0  0  0
 10 11  2  0  0  0
 11 12  1  0  0  0
 12 13  2  0  0  0
 12 16  1  0  0  0
 13 14  1  0  0  0
 14 15  2  0  0  0
 15 16  1  0  0  0
M  END
>  <CHROM.0>
-60.38630372,-73.71119939,-10.44319042,64.32207281,-29.85421116,-178.70175762
-156.15186598,-162.97469200

>  <CHROM.1>
-1.11675177,4.97253776,-17.73371968,18.41055651,-15.21014435,-0.21278147
0.73255226,0.29192864

>  <Name>
F0777-1587

>  <RI>
2.52174e+07

>  <Rbt.Current_Directory>
/home/adria/Escritorio/rDock_CMTR_LC/2pxcA_model/inputs_sah

>  <Rbt.Executable>
rbdock ($Id: //depot/dev/client3/rdock/2013.1/src/exe/rbdock.cxx#4 $)

>  <Rbt.Library>
libRbt.so (2013.1, Build901 2013/11/27)

>  <Rbt.Parameter_File>
/home/adria/Escritorio/rDock_2013.1_src/data/scripts/dock.prm

>  <Rbt.Receptor>
sah_rdock.prm

>  <SCORE>
-42.5194

>  <SCORE.INTER>
-13.1732

>  <SCORE.INTER.CONST>
1

>  <SCORE.INTER.POLAR>
-0.824621

>  <SCORE.INTER.REPUL>
0

>  <SCORE.INTER.ROT>
2

>  <SCORE.INTER.VDW>
-17.7695

>  <SCORE.INTER.norm>
-0.823324

>  <SCORE.INTRA>
-21.7253

>  <SCORE.INTRA.DIHEDRAL>
-47.7674

>  <SCORE.INTRA.DIHEDRAL.0>
47.9214

>  <SCORE.INTRA.POLAR>
0

>  <SCORE.INTRA.POLAR.0>
0

>  <SCORE.INTRA.REPUL>
0

>  <SCORE.INTRA.REPUL.0>
0

>  <SCORE.INTRA.VDW>
2.1584

>  <SCORE.INTRA.VDW.0>
-0.808333

>  <SCORE.INTRA.norm>
-1.35783

>  <SCORE.RESTR>
0

>  <SCORE.RESTR.CAVITY>
0

>  <SCORE.RESTR.norm>
0

>  <SCORE.SYSTEM>
-7.62086

>  <SCORE.SYSTEM.CONST>
0

>  <SCORE.SYSTEM.DIHEDRAL>
9.59203

>  <SCORE.SYSTEM.POLAR>
-4.69279

>  <SCORE.SYSTEM.REPUL>
0.0397808

>  <SCORE.SYSTEM.VDW>
3.33971

>  <SCORE.SYSTEM.norm>
-0.476304

>  <SCORE.heavy>
16

>  <SCORE.norm>
-2.65746

$$$$
F0777-1587
  rDOCK(R)          3D
libRbt.so/2013.1/901 2013/11/27
 16 17  0  0  0  0  0  0  0  0999 V2000
  -14.8677   14.0205  -18.7801 C   0  0  0  0  0  0
  -15.8882   14.3761  -17.7475 C   0  0  0  0  0  0
  -16.3609   13.6033  -16.6985 C   0  0  0  0  0  0
  -15.9105   12.2088  -16.3865 C   0  0  0  0  0  0
  -17.3322   14.3345  -15.9210 C   0  0  0  0  0  0
  -17.9938   13.8171  -14.7568 C   0  0  0  0  0  0
  -18.5232   13.3547  -13.8341 N   0  0  0  0  0  0
  -17.5754   15.6094  -16.4006 C   0  0  0  0  0  0
  -16.6095   15.9232  -17.7851 S   0  0  0  0  0  0
  -18.3713   16.5987  -15.9106 N   0  0  0  0  0  0
  -19.0284   16.2931  -14.8362 C   0  0  0  0  0  0
  -19.9207   17.2418  -14.2338 C   0  0  0  0  0  0
  -20.3282   18.5050  -14.6155 C   0  0  0  0  0  0
  -21.2132   18.9659  -13.6117 C   0  0  0  0  0  0
  -21.2909   17.9579  -12.6800 C   0  0  0  0  0  0
  -20.5197   16.9034  -13.0528 O   0  0  0  0  0  0
  1  2  1  0  0  0
  2  3  2  0  0  0
  2  9  1  0  0  0
  3  4  1  0  0  0
  3  5  1  0  0  0
  5  6  1  0  0  0
  5  8  2  0  0  0
  6  7  3  0  0  0
  8  9  1  0  0  0
  8 10  1  0  0  0
 10 11  2  0  0  0
 11 12  1  0  0  0
 12 13  2  0  0  0
 12 16  1  0  0  0
 13 14  1  0  0  0
 14 15  2  0  0  0
 15 16  1  0  0  0
M  END
>  <CHROM.0>
-178.36565846,-167.31268935,-47.42870153,64.54776338,-31.29466595,-177.98161957
-156.10489545,-162.70674907

>  <CHROM.1>
-1.48774127,4.25411239,-18.09968470,15.62135359,-15.63392471,-0.17139498
0.84355666,-0.54484976

>  <Name>
F0777-1587

>  <RI>
2.52174e+07

>  <Rbt.Current_Directory>
/home/adria/Escritorio/rDock_CMTR_LC/2pxcA_model/inputs_sah

>  <Rbt.Executable>
rbdock ($Id: //depot/dev/client3/rdock/2013.1/src/exe/rbdock.cxx#4 $)

>  <Rbt.Library>
libRbt.so (2013.1, Build901 2013/11/27)

>  <Rbt.Parameter_File>
/home/adria/Escritorio/rDock_2013.1_src/data/scripts/dock.prm

>  <Rbt.Receptor>
sah_rdock.prm

>  <SCORE>
-37.0958

>  <SCORE.INTER>
-9.16788

>  <SCORE.INTER.CONST>
1

>  <SCORE.INTER.POLAR>
-0.895267

>  <SCORE.INTER.REPUL>
0

>  <SCORE.INTER.ROT>
2

>  <SCORE.INTER.VDW>
-13.524

>  <SCORE.INTER.norm>
-0.572992

>  <SCORE.INTRA>
-21.7404

>  <SCORE.INTRA.DIHEDRAL>
-47.7977

>  <SCORE.INTRA.DIHEDRAL.0>
47.9214

>  <SCORE.INTRA.POLAR>
0

>  <SCORE.INTRA.POLAR.0>
0

>  <SCORE.INTRA.REPUL>
0

>  <SCORE.INTRA.REPUL.0>
0

>  <SCORE.INTRA.VDW>
2.15847

>  <SCORE.INTRA.VDW.0>
-0.808333

>  <SCORE.INTRA.norm>
-1.35877

>  <SCORE.RESTR>
0

>  <SCORE.RESTR.CAVITY>
0

>  <SCORE.RESTR.norm>
0

>  <SCORE.SYSTEM>
-6.18754

>  <SCORE.SYSTEM.CONST>
0

>  <SCORE.SYSTEM.DIHEDRAL>
6.28124

>  <SCORE.SYSTEM.POLAR>
-3.72522

>  <SCORE.SYSTEM.VDW>
3.3376

>  <SCORE.SYSTEM.norm>
-0.386721

>  <SCORE.heavy>
16

>  <SCORE.norm>
-2.31849

$$$$
F0777-1587
  rDOCK(R)          3D
libRbt.so/2013.1/901 2013/11/27
 16 17  0  0  0  0  0  0  0  0999 V2000
  -27.5064   23.0297   -9.2265 C   0  0  0  0  0  0
  -26.2005   23.5462   -9.7380 C   0  0  0  0  0  0
  -25.9061   24.0600  -10.9912 C   0  0  0  0  0  0
  -26.8884   24.2069  -12.1130 C   0  0  0  0  0  0
  -24.5232   24.4658  -11.0664 C   0  0  0  0  0  0
  -23.9131   25.0537  -12.2251 C   0  0  0  0  0  0
  -23.4518   25.5053  -13.1888 N   0  0  0  0  0  0
  -23.8180   24.2393   -9.8976 C   0  0  0  0  0  0
  -24.8419   23.5501   -8.7039 S   0  0  0  0  0  0
  -22.5297   24.5356   -9.5739 N   0  0  0  0  0  0
  -21.8160   25.0137  -10.5442 C   0  0  0  0  0  0
  -20.4349   25.3440  -10.3379 C   0  0  0  0  0  0
  -19.3831   24.6368   -9.7889 C   0  0  0  0  0  0
  -18.2523   25.4862   -9.8418 C   0  0  0  0  0  0
  -18.6823   26.6580  -10.4180 C   0  0  0  0  0  0
  -20.0015   26.5787  -10.7327 O   0  0  0  0  0  0
  1  2  1  0  0  0
  2  3  2  0  0  0
  2  9  1  0  0  0
  3  4  1  0  0  0
  3  5  1  0  0  0
  5  6  1  0  0  0
  5  8  2  0  0  0
  6  7  3  0  0  0
  8  9  1  0  0  0
  8 10  1  0  0  0
 10 11  2  0  0  0
 11 12  1  0  0  0
 12 13  2  0  0  0
 12 16  1  0  0  0
 13 14  1  0  0  0
 14 15  2  0  0  0
 15 16  1  0  0  0
M  END
>  <CHROM.0>
-175.37580262,-74.64925446,-167.26650780,64.45956358,30.39490357,179.76358239
83.12730799,-163.20334223

>  <CHROM.1>
-5.95046792,50.23362219,-23.16557360,24.65970244,-10.38146377,-3.01277686
-0.26935211,-1.17103789

>  <Name>
F0777-1587

>  <RI>
2.52174e+07

>  <Rbt.Current_Directory>
/home/adria/Escritorio/rDock_CMTR_LC/2pxcA_model/inputs_sah

>  <Rbt.Executable>
rbdock ($Id: //depot/dev/client3/rdock/2013.1/src/exe/rbdock.cxx#4 $)

>  <Rbt.Library>
libRbt.so (2013.1, Build901 2013/11/27)

>  <Rbt.Parameter_File>
/home/adria/Escritorio/rDock_2013.1_src/data/scripts/dock.prm

>  <Rbt.Receptor>
sah_rdock.prm

>  <SCORE>
-23.1192

>  <SCORE.INTER>
-9.79303

>  <SCORE.INTER.CONST>
1

>  <SCORE.INTER.POLAR>
-1.06875

>  <SCORE.INTER.REPUL>
0.350267

>  <SCORE.INTER.ROT>
2

>  <SCORE.INTER.VDW>
-15.3106

>  <SCORE.INTER.norm>
-0.612065

>  <SCORE.INTRA>
-18.3832

>  <SCORE.INTRA.DIHEDRAL>
-40.8917

>  <SCORE.INTRA.DIHEDRAL.0>
47.9214

>  <SCORE.INTRA.POLAR>
0

>  <SCORE.INTRA.POLAR.0>
0

>  <SCORE.INTRA.REPUL>
0

>  <SCORE.INTRA.REPUL.0>
0

>  <SCORE.INTRA.VDW>
2.06269

>  <SCORE.INTRA.VDW.0>
-0.808333

>  <SCORE.INTRA.norm>
-1.14895

>  <SCORE.RESTR>
0.191245

>  <SCORE.RESTR.CAVITY>
0.191245

>  <SCORE.RESTR.norm>
0.0119528

>  <SCORE.SYSTEM>
4.86576

>  <SCORE.SYSTEM.CONST>
0

>  <SCORE.SYSTEM.DIHEDRAL>
6.68899

>  <SCORE.SYSTEM.POLAR>
-3.69406

>  <SCORE.SYSTEM.REPUL>
0.0413468

>  <SCORE.SYSTEM.VDW>
13.8743

>  <SCORE.SYSTEM.norm>
0.30411

>  <SCORE.heavy>
16

>  <SCORE.norm>
-1.44495

$$$$
F0777-1587
  rDOCK(R)          3D
libRbt.so/2013.1/901 2013/11/27
 16 17  0  0  0  0  0  0  0  0999 V2000
  -23.9783   25.5500  -12.6071 C   0  0  0  0  0  0
  -22.6564   24.8841  -12.3995 C   0  0  0  0  0  0
  -21.6666   25.1969  -11.4811 C   0  0  0  0  0  0
  -21.7451   26.3052  -10.4759 C   0  0  0  0  0  0
  -20.5512   24.2891  -11.6012 C   0  0  0  0  0  0
  -19.3752   24.3370  -10.7793 C   0  0  0  0  0  0
  -18.4320   24.4229  -10.1097 N   0  0  0  0  0  0
  -20.7160   23.3420  -12.5965 C   0  0  0  0  0  0
  -22.2341   23.5460  -13.3723 S   0  0  0  0  0  0
  -19.9184   22.3028  -12.9652 N   0  0  0  0  0  0
  -20.3064   21.6609  -14.0220 C   0  0  0  0  0  0
  -19.5643   20.5298  -14.5003 C   0  0  0  0  0  0
  -18.4581   19.8680  -14.0042 C   0  0  0  0  0  0
  -18.1644   18.8281  -14.9183 C   0  0  0  0  0  0
  -19.1070   18.9190  -15.9149 C   0  0  0  0  0  0
  -19.9674   19.9404  -15.6658 O   0  0  0  0  0  0
  1  2  1  0  0  0
  2  3  2  0  0  0
  2  9  1  0  0  0
  3  4  1  0  0  0
  3  5  1  0  0  0
  5  6  1  0  0  0
  5  8  2  0  0  0
  6  7  3  0  0  0
  8  9  1  0  0  0
  8 10  1  0  0  0
 10 11  2  0  0  0
 11 12  1  0  0  0
 12 13  2  0  0  0
 12 16  1  0  0  0
 13 14  1  0  0  0
 14 15  2  0  0  0
 15 16  1  0  0  0
M  END
>  <CHROM.0>
-62.00636939,67.50361783,-167.58222714,65.70706675,-29.80352341,-60.10776853
-156.08048705,-163.05063907

>  <CHROM.1>
-174.38333969,3.95825472,-20.59425950,22.80932064,-13.01436178,2.00882783
-0.45961062,0.76506869

>  <Name>
F0777-1587

>  <RI>
2.52174e+07

>  <Rbt.Current_Directory>
/home/adria/Escritorio/rDock_CMTR_LC/2pxcA_model/inputs_sah

>  <Rbt.Executable>
rbdock ($Id: //depot/dev/client3/rdock/2013.1/src/exe/rbdock.cxx#4 $)

>  <Rbt.Library>
libRbt.so (2013.1, Build901 2013/11/27)

>  <Rbt.Parameter_File>
/home/adria/Escritorio/rDock_2013.1_src/data/scripts/dock.prm

>  <Rbt.Receptor>
sah_rdock.prm

>  <SCORE>
-36.8778

>  <SCORE.INTER>
-8.63853

>  <SCORE.INTER.CONST>
1

>  <SCORE.INTER.POLAR>
0

>  <SCORE.INTER.REPUL>
0.292578

>  <SCORE.INTER.ROT>
2

>  <SCORE.INTER.VDW>
-17.5014

>  <SCORE.INTER.norm>
-0.539908

>  <SCORE.INTRA>
-20.9433

>  <SCORE.INTRA.DIHEDRAL>
-46.977

>  <SCORE.INTRA.DIHEDRAL.0>
47.9214

>  <SCORE.INTRA.POLAR>
0

>  <SCORE.INTRA.POLAR.0>
0

>  <SCORE.INTRA.REPUL>
0

>  <SCORE.INTRA.REPUL.0>
0

>  <SCORE.INTRA.VDW>
2.54518

>  <SCORE.INTRA.VDW.0>
-0.808333

>  <SCORE.INTRA.norm>
-1.30896

>  <SCORE.RESTR>
0

>  <SCORE.RESTR.CAVITY>
0

>  <SCORE.RESTR.norm>
0

>  <SCORE.SYSTEM>
-7.2959

>  <SCORE.SYSTEM.CONST>
0

>  <SCORE.SYSTEM.DIHEDRAL>
6.10253

>  <SCORE.SYSTEM.POLAR>
-3.73604

>  <SCORE.SYSTEM.VDW>
2.35538

>  <SCORE.SYSTEM.norm>
-0.455993

>  <SCORE.heavy>
16

>  <SCORE.norm>
-2.30486

$$$$
F0777-1587
  rDOCK(R)          3D
libRbt.so/2013.1/901 2013/11/27
 16 17  0  0  0  0  0  0  0  0999 V2000
  -18.0725   19.9178  -17.2011 C   0  0  0  0  0  0
  -18.7659   20.0352  -15.8822 C   0  0  0  0  0  0
  -19.0321   19.0401  -14.9549 C   0  0  0  0  0  0
  -18.6500   17.5993  -15.1059 C   0  0  0  0  0  0
  -19.7067   19.5831  -13.8005 C   0  0  0  0  0  0
  -20.1026   18.8122  -12.6561 C   0  0  0  0  0  0
  -20.4261   18.1507  -11.7599 N   0  0  0  0  0  0
  -19.9420   20.9439  -13.8890 C   0  0  0  0  0  0
  -19.3266   21.5635  -15.3674 S   0  0  0  0  0  0
  -20.4951   21.8031  -12.9901 N   0  0  0  0  0  0
  -20.6977   23.0044  -13.4319 C   0  0  0  0  0  0
  -21.2540   24.0114  -12.5742 C   0  0  0  0  0  0
  -21.3734   24.0988  -11.2009 C   0  0  0  0  0  0
  -22.0238   25.3258  -10.9281 C   0  0  0  0  0  0
  -22.2619   25.9109  -12.1491 C   0  0  0  0  0  0
  -21.7894   25.1276  -13.1535 O   0  0  0  0  0  0
  1  2  1  0  0  0
  2  3  2  0  0  0
  2  9  1  0  0  0
  3  4  1  0  0  0
  3  5  1  0  0  0
  5  6  1  0  0  0
  5  8  2  0  0  0
  6  7  3  0  0  0
  8  9  1  0  0  0
  8 10  1  0  0  0
 10 11  2  0  0  0
 11 12  1  0  0  0
 12 13  2  0  0  0
 12 16  1  0  0  0
 13 14  1  0  0  0
 14 15  2  0  0  0
 15 16  1  0  0  0
M  END
>  <CHROM.0>
179.04748337,-168.14745213,-130.85650783,62.58413836,-30.78254169,-57.63974074
83.22719014,-162.75216585

>  <CHROM.1>
-173.40049653,17.69103648,-20.16958248,21.57235688,-13.73371234,-0.55397171
1.09311551,-0.48243948

>  <Name>
F0777-1587

>  <RI>
2.52174e+07

>  <Rbt.Current_Directory>
/home/adria/Escritorio/rDock_CMTR_LC/2pxcA_model/inputs_sah

>  <Rbt.Executable>
rbdock ($Id: //depot/dev/client3/rdock/2013.1/src/exe/rbdock.cxx#4 $)

>  <Rbt.Library>
libRbt.so (2013.1, Build901 2013/11/27)

>  <Rbt.Parameter_File>
/home/adria/Escritorio/rDock_2013.1_src/data/scripts/dock.prm

>  <Rbt.Receptor>
sah_rdock.prm

>  <SCORE>
-38.3151

>  <SCORE.INTER>
-12.5013

>  <SCORE.INTER.CONST>
1

>  <SCORE.INTER.POLAR>
-0.632139

>  <SCORE.INTER.REPUL>
0

>  <SCORE.INTER.ROT>
2

>  <SCORE.INTER.VDW>
-17.752

>  <SCORE.INTER.norm>
-0.781332

>  <SCORE.INTRA>
-20.3659

>  <SCORE.INTRA.DIHEDRAL>
-45.7462

>  <SCORE.INTRA.DIHEDRAL.0>
47.9214

>  <SCORE.INTRA.POLAR>
0

>  <SCORE.INTRA.POLAR.0>
0

>  <SCORE.INTRA.REPUL>
0

>  <SCORE.INTRA.REPUL.0>
0

>  <SCORE.INTRA.VDW>
2.50716

>  <SCORE.INTRA.VDW.0>
-0.808333

>  <SCORE.INTRA.norm>
-1.27287

>  <SCORE.RESTR>
0

>  <SCORE.RESTR.CAVITY>
0

>  <SCORE.RESTR.norm>
0

>  <SCORE.SYSTEM>
-5.44789

>  <SCORE.SYSTEM.CONST>
0

>  <SCORE.SYSTEM.DIHEDRAL>
9.089

>  <SCORE.SYSTEM.POLAR>
-4.13999

>  <SCORE.SYSTEM.VDW>
4.08357

>  <SCORE.SYSTEM.norm>
-0.340493

>  <SCORE.heavy>
16

>  <SCORE.norm>
-2.39469

$$$$
F0777-1587
  rDOCK(R)          3D
libRbt.so/2013.1/901 2013/11/27
 16 17  0  0  0  0  0  0  0  0999 V2000
  -14.7358   18.3109  -17.7041 C   0  0  0  0  0  0
  -15.8775   18.5911  -16.7810 C   0  0  0  0  0  0
  -16.7030   17.6882  -16.1296 C   0  0  0  0  0  0
  -16.5939   16.1972  -16.2281 C   0  0  0  0  0  0
  -17.6729   18.3779  -15.3133 C   0  0  0  0  0  0
  -18.6584   17.7243  -14.4995 C   0  0  0  0  0  0
  -19.4539   17.1592  -13.8724 N   0  0  0  0  0  0
  -17.5681   19.7561  -15.3786 C   0  0  0  0  0  0
  -16.2792   20.2104  -16.4182 S   0  0  0  0  0  0
  -18.2593   20.7250  -14.7186 N   0  0  0  0  0  0
  -19.1284   20.2915  -13.8605 C   0  0  0  0  0  0
  -19.9389   21.2127  -13.1165 C   0  0  0  0  0  0
  -20.7532   21.0509  -12.0127 C   0  0  0  0  0  0
  -21.3110   22.3209  -11.7311 C   0  0  0  0  0  0
  -20.8045   23.1784  -12.6788 C   0  0  0  0  0  0
  -19.9629   22.5193  -13.5172 O   0  0  0  0  0  0
  1  2  1  0  0  0
  2  3  2  0  0  0
  2  9  1  0  0  0
  3  4  1  0  0  0
  3  5  1  0  0  0
  5  6  1  0  0  0
  5  8  2  0  0  0
  6  7  3  0  0  0
  8  9  1  0  0  0
  8 10  1  0  0  0
 10 11  2  0  0  0
 11 12  1  0  0  0
 12 13  2  0  0  0
 12 16  1  0  0  0
 13 14  1  0  0  0
 14 15  2  0  0  0
 15 16  1  0  0  0
M  END
>  <CHROM.0>
-60.18857869,65.56744192,-47.21561565,63.75767337,-30.92806166,-58.86902157
83.20675319,-163.92456355

>  <CHROM.1>
2.36531753,-167.41370178,-18.17881426,19.75703990,-14.77966116,-0.58005001
0.72475696,0.01075114

>  <Name>
F0777-1587

>  <RI>
2.52174e+07

>  <Rbt.Current_Directory>
/home/adria/Escritorio/rDock_CMTR_LC/2pxcA_model/inputs_sah

>  <Rbt.Executable>
rbdock ($Id: //depot/dev/client3/rdock/2013.1/src/exe/rbdock.cxx#4 $)

>  <Rbt.Library>
libRbt.so (2013.1, Build901 2013/11/27)

>  <Rbt.Parameter_File>
/home/adria/Escritorio/rDock_2013.1_src/data/scripts/dock.prm

>  <Rbt.Receptor>
sah_rdock.prm

>  <SCORE>
-40.7904

>  <SCORE.INTER>
-12.2072

>  <SCORE.INTER.CONST>
1

>  <SCORE.INTER.POLAR>
-0.824621

>  <SCORE.INTER.REPUL>
0

>  <SCORE.INTER.ROT>
2

>  <SCORE.INTER.VDW>
-16.8035

>  <SCORE.INTER.norm>
-0.762949

>  <SCORE.INTRA>
-21.4074

>  <SCORE.INTRA.DIHEDRAL>
-47.0473

>  <SCORE.INTRA.DIHEDRAL.0>
47.9214

>  <SCORE.INTRA.POLAR>
0

>  <SCORE.INTRA.POLAR.0>
0

>  <SCORE.INTRA.REPUL>
0

>  <SCORE.INTRA.REPUL.0>
0

>  <SCORE.INTRA.VDW>
2.11627

>  <SCORE.INTRA.VDW.0>
-0.808333

>  <SCORE.INTRA.norm>
-1.33796

>  <SCORE.RESTR>
0

>  <SCORE.RESTR.CAVITY>
0

>  <SCORE.RESTR.norm>
0

>  <SCORE.SYSTEM>
-7.17584

>  <SCORE.SYSTEM.CONST>
0

>  <SCORE.SYSTEM.DIHEDRAL>
5.57951

>  <SCORE.SYSTEM.POLAR>
-3.66837

>  <SCORE.SYSTEM.VDW>
2.50687

>  <SCORE.SYSTEM.norm>
-0.44849

>  <SCORE.heavy>
16

>  <SCORE.norm>
-2.5494

$$$$
F0777-1587
  rDOCK(R)          3D
libRbt.so/2013.1/901 2013/11/27
 16 17  0  0  0  0  0  0  0  0999 V2000
  -17.9520   20.1817  -16.7554 C   0  0  0  0  0  0
  -18.7716   20.2814  -15.5094 C   0  0  0  0  0  0
  -19.1089   19.2779  -14.6149 C   0  0  0  0  0  0
  -18.6890   17.8444  -14.7322 C   0  0  0  0  0  0
  -19.9013   19.8042  -13.5297 C   0  0  0  0  0  0
  -20.3924   19.0215  -12.4311 C   0  0  0  0  0  0
  -20.7895   18.3506  -11.5722 N   0  0  0  0  0  0
  -20.1506   21.1611  -13.6368 C   0  0  0  0  0  0
  -19.4060   21.7977  -15.0470 S   0  0  0  0  0  0
  -20.8028   22.0067  -12.7932 N   0  0  0  0  0  0
  -20.9314   23.2218  -13.2251 C   0  0  0  0  0  0
  -21.5796   24.2163  -12.4189 C   0  0  0  0  0  0
  -21.8446   24.2857  -11.0651 C   0  0  0  0  0  0
  -22.5252   25.5074  -10.8476 C   0  0  0  0  0  0
  -22.6344   26.1075  -12.0797 C   0  0  0  0  0  0
  -22.0548   25.3384  -13.0378 O   0  0  0  0  0  0
  1  2  1  0  0  0
  2  3  2  0  0  0
  2  9  1  0  0  0
  3  4  1  0  0  0
  3  5  1  0  0  0
  5  6  1  0  0  0
  5  8  2  0  0  0
  6  7  3  0  0  0
  8  9  1  0  0  0
  8 10  1  0  0  0
 10 11  2  0  0  0
 11 12  1  0  0  0
 12 13  2  0  0  0
 12 16  1  0  0  0
 13 14  1  0  0  0
 14 15  2  0  0  0
 15 16  1  0  0  0
M  END
>  <CHROM.0>
-62.00056799,-74.28515325,-167.52104703,-61.35595093,-30.10511417,-58.60158191
-37.47614367,-161.92763333

>  <CHROM.1>
-176.26615721,19.47301909,-20.38125663,21.79134369,-13.49205713,-0.62206133
1.00590630,-0.41693247

>  <Name>
F0777-1587

>  <RI>
2.52174e+07

>  <Rbt.Current_Directory>
/home/adria/Escritorio/rDock_CMTR_LC/2pxcA_model/inputs_sah

>  <Rbt.Executable>
rbdock ($Id: //depot/dev/client3/rdock/2013.1/src/exe/rbdock.cxx#4 $)

>  <Rbt.Library>
libRbt.so (2013.1, Build901 2013/11/27)

>  <Rbt.Parameter_File>
/home/adria/Escritorio/rDock_2013.1_src/data/scripts/dock.prm

>  <Rbt.Receptor>
sah_rdock.prm

>  <SCORE>
-40.9423

>  <SCORE.INTER>
-13.1002

>  <SCORE.INTER.CONST>
1

>  <SCORE.INTER.POLAR>
-0.6446

>  <SCORE.INTER.REPUL>
0.000375341

>  <SCORE.INTER.ROT>
2

>  <SCORE.INTER.VDW>
-18.3104

>  <SCORE.INTER.norm>
-0.818762

>  <SCORE.INTRA>
-20.4841

>  <SCORE.INTRA.DIHEDRAL>
-46.121

>  <SCORE.INTRA.DIHEDRAL.0>
47.9214

>  <SCORE.INTRA.POLAR>
0

>  <SCORE.INTRA.POLAR.0>
0

>  <SCORE.INTRA.REPUL>
0

>  <SCORE.INTRA.REPUL.0>
0

>  <SCORE.INTRA.VDW>
2.57639

>  <SCORE.INTRA.VDW.0>
-0.808333

>  <SCORE.INTRA.norm>
-1.28026

>  <SCORE.RESTR>
0

>  <SCORE.RESTR.CAVITY>
0

>  <SCORE.RESTR.norm>
0

>  <SCORE.SYSTEM>
-7.35801

>  <SCORE.SYSTEM.CONST>
0

>  <SCORE.SYSTEM.DIHEDRAL>
6.52085

>  <SCORE.SYSTEM.POLAR>
-3.99735

>  <SCORE.SYSTEM.REPUL>
0.0407493

>  <SCORE.SYSTEM.VDW>
2.76879

>  <SCORE.SYSTEM.norm>
-0.459876

>  <SCORE.heavy>
16

>  <SCORE.norm>
-2.5589

$$$$
F0777-1587
  rDOCK(R)          3D
libRbt.so/2013.1/901 2013/11/27
 16 17  0  0  0  0  0  0  0  0999 V2000
  -19.0389   21.6992  -15.2670 C   0  0  0  0  0  0
  -19.2790   20.4113  -14.5474 C   0  0  0  0  0  0
  -19.9022   20.2075  -13.3263 C   0  0  0  0  0  0
  -20.4839   21.2880  -12.4666 C   0  0  0  0  0  0
  -19.9437   18.8022  -13.0008 C   0  0  0  0  0  0
  -20.5401   18.2631  -11.8115 C   0  0  0  0  0  0
  -21.0124   17.8689  -10.8281 N   0  0  0  0  0  0
  -19.3499   17.9971  -13.9569 C   0  0  0  0  0  0
  -18.7583   18.9487  -15.2579 S   0  0  0  0  0  0
  -19.2448   16.6421  -14.0263 N   0  0  0  0  0  0
  -18.7187   16.1876  -15.1200 C   0  0  0  0  0  0
  -18.5741   14.7749  -15.3261 C   0  0  0  0  0  0
  -18.2801   14.0257  -16.4486 C   0  0  0  0  0  0
  -18.2844   12.6697  -16.0432 C   0  0  0  0  0  0
  -18.5809   12.6740  -14.7008 C   0  0  0  0  0  0
  -18.7477   13.9459  -14.2534 O   0  0  0  0  0  0
  1  2  1  0  0  0
  2  3  2  0  0  0
  2  9  1  0  0  0
  3  4  1  0  0  0
  3  5  1  0  0  0
  5  6  1  0  0  0
  5  8  2  0  0  0
  6  7  3  0  0  0
  8  9  1  0  0  0
  8 10  1  0  0  0
 10 11  2  0  0  0
 11 12  1  0  0  0
 12 13  2  0  0  0
 12 16  1  0  0  0
 13 14  1  0  0  0
 14 15  2  0  0  0
 15 16  1  0  0  0
M  END
>  <CHROM.0>
-62.40198432,-169.33541666,-129.05184725,62.89771306,-31.80185220,61.05598435
-162.85996931,-161.99070430

>  <CHROM.1>
174.47011854,166.91369790,-19.25197452,17.41453043,-14.23497799,-2.00887257
-1.11607267,3.00785785

>  <Name>
F0777-1587

>  <RI>
2.52174e+07

>  <Rbt.Current_Directory>
/home/adria/Escritorio/rDock_CMTR_LC/2pxcA_model/inputs_sah

>  <Rbt.Executable>
rbdock ($Id: //depot/dev/client3/rdock/2013.1/src/exe/rbdock.cxx#4 $)

>  <Rbt.Library>
libRbt.so (2013.1, Build901 2013/11/27)

>  <Rbt.Parameter_File>
/home/adria/Escritorio/rDock_2013.1_src/data/scripts/dock.prm

>  <Rbt.Receptor>
sah_rdock.prm

>  <SCORE>
-40.7416

>  <SCORE.INTER>
-14.0142

>  <SCORE.INTER.CONST>
1

>  <SCORE.INTER.POLAR>
-1.34715

>  <SCORE.INTER.REPUL>
0

>  <SCORE.INTER.ROT>
2

>  <SCORE.INTER.VDW>
-16.8339

>  <SCORE.INTER.norm>
-0.875885

>  <SCORE.INTRA>
-20.8714

>  <SCORE.INTRA.DIHEDRAL>
-47.1004

>  <SCORE.INTRA.DIHEDRAL.0>
47.9214

>  <SCORE.INTRA.POLAR>
0

>  <SCORE.INTRA.POLAR.0>
0

>  <SCORE.INTRA.REPUL>
0

>  <SCORE.INTRA.REPUL.0>
0

>  <SCORE.INTRA.VDW>
2.67884

>  <SCORE.INTRA.VDW.0>
-0.808333

>  <SCORE.INTRA.norm>
-1.30446

>  <SCORE.RESTR>
0

>  <SCORE.RESTR.CAVITY>
0

>  <SCORE.RESTR.norm>
0

>  <SCORE.SYSTEM>
-5.85606

>  <SCORE.SYSTEM.CONST>
0

>  <SCORE.SYSTEM.DIHEDRAL>
8.41841

>  <SCORE.SYSTEM.POLAR>
-4.06761

>  <SCORE.SYSTEM.VDW>
3.7646

>  <SCORE.SYSTEM.norm>
-0.366004

>  <SCORE.heavy>
16

>  <SCORE.norm>
-2.54635

$$$$
F0777-1587
  rDOCK(R)          3D
libRbt.so/2013.1/901 2013/11/27
 16 17  0  0  0  0  0  0  0  0999 V2000
  -18.6594   19.6923  -16.7193 C   0  0  0  0  0  0
  -19.2129   20.3504  -15.4968 C   0  0  0  0  0  0
  -19.7062   19.7577  -14.3451 C   0  0  0  0  0  0
  -19.7715   18.2813  -14.0979 C   0  0  0  0  0  0
  -20.1266   20.7582  -13.3939 C   0  0  0  0  0  0
  -20.6658   20.4664  -12.0959 C   0  0  0  0  0  0
  -21.1179   20.1889  -11.0644 N   0  0  0  0  0  0
  -19.9580   22.0548  -13.8469 C   0  0  0  0  0  0
  -19.2722   22.0551  -15.4210 S   0  0  0  0  0  0
  -20.1841   23.2429  -13.2229 N   0  0  0  0  0  0
  -20.5000   23.1533  -11.9692 C   0  0  0  0  0  0
  -20.7863   24.3331  -11.2044 C   0  0  0  0  0  0
  -21.4171   25.5186  -11.5276 C   0  0  0  0  0  0
  -21.3937   26.3208  -10.3618 C   0  0  0  0  0  0
  -20.7508   25.5776   -9.4004 C   0  0  0  0  0  0
  -20.3880   24.3665   -9.8974 O   0  0  0  0  0  0
  1  2  1  0  0  0
  2  3  2  0  0  0
  2  9  1  0  0  0
  3  4  1  0  0  0
  3  5  1  0  0  0
  5  6  1  0  0  0
  5  8  2  0  0  0
  6  7  3  0  0  0
  8  9  1  0  0  0
  8 10  1  0  0  0
 10 11  2  0  0  0
 11 12  1  0  0  0
 12 13  2  0  0  0
 12 16  1  0  0  0
 13 14  1  0  0  0
 14 15  2  0  0  0
 15 16  1  0  0  0
M  END
>  <CHROM.0>
-61.49045013,66.83852212,-129.32018937,63.15411346,-29.77682600,62.10647625
83.70217064,-161.46060922

>  <CHROM.1>
6.59152357,36.10588843,-20.15577025,22.23154248,-12.96193135,-0.80361159
1.24588154,0.00926800

>  <Name>
F0777-1587

>  <RI>
2.52174e+07

>  <Rbt.Current_Directory>
/home/adria/Escritorio/rDock_CMTR_LC/2pxcA_model/inputs_sah

>  <Rbt.Executable>
rbdock ($Id: //depot/dev/client3/rdock/2013.1/src/exe/rbdock.cxx#4 $)

>  <Rbt.Library>
libRbt.so (2013.1, Build901 2013/11/27)

>  <Rbt.Parameter_File>
/home/adria/Escritorio/rDock_2013.1_src/data/scripts/dock.prm

>  <Rbt.Receptor>
sah_rdock.prm

>  <SCORE>
-37.2925

>  <SCORE.INTER>
-11.1863

>  <SCORE.INTER.CONST>
1

>  <SCORE.INTER.POLAR>
0

>  <SCORE.INTER.REPUL>
0.00233791

>  <SCORE.INTER.ROT>
2

>  <SCORE.INTER.VDW>
-18.5979

>  <SCORE.INTER.norm>
-0.699141

>  <SCORE.INTRA>
-19.3993

>  <SCORE.INTRA.DIHEDRAL>
-42.8402

>  <SCORE.INTRA.DIHEDRAL.0>
47.9214

>  <SCORE.INTRA.POLAR>
0

>  <SCORE.INTRA.POLAR.0>
0

>  <SCORE.INTRA.REPUL>
0

>  <SCORE.INTRA.REPUL.0>
0

>  <SCORE.INTRA.VDW>
2.02077

>  <SCORE.INTRA.VDW.0>
-0.808333

>  <SCORE.INTRA.norm>
-1.21246

>  <SCORE.RESTR>
0

>  <SCORE.RESTR.CAVITY>
0

>  <SCORE.RESTR.norm>
0

>  <SCORE.SYSTEM>
-6.70697

>  <SCORE.SYSTEM.CONST>
0

>  <SCORE.SYSTEM.DIHEDRAL>
9.03375

>  <SCORE.SYSTEM.POLAR>
-4.22488

>  <SCORE.SYSTEM.VDW>
3.14076

>  <SCORE.SYSTEM.norm>
-0.419185

>  <SCORE.heavy>
16

>  <SCORE.norm>
-2.33078

$$$$
F0777-1587
  rDOCK(R)          3D
libRbt.so/2013.1/901 2013/11/27
 16 17  0  0  0  0  0  0  0  0999 V2000
  -23.9875   25.5754  -12.5892 C   0  0  0  0  0  0
  -22.6537   24.9223  -12.4202 C   0  0  0  0  0  0
  -21.6642   25.2068  -11.4924 C   0  0  0  0  0  0
  -21.7555   26.2638  -10.4344 C   0  0  0  0  0  0
  -20.5348   24.3246  -11.6614 C   0  0  0  0  0  0
  -19.3553   24.3523  -10.8437 C   0  0  0  0  0  0
  -18.4100   24.4214  -10.1751 N   0  0  0  0  0  0
  -20.6894   23.4241  -12.7007 C   0  0  0  0  0  0
  -22.2149   23.6400  -13.4587 S   0  0  0  0  0  0
  -19.8768   22.4174  -13.1229 N   0  0  0  0  0  0
  -20.2672   21.8121  -14.2003 C   0  0  0  0  0  0
  -19.5099   20.7169  -14.7352 C   0  0  0  0  0  0
  -18.3720   20.0711  -14.2925 C   0  0  0  0  0  0
  -18.0783   19.0679  -15.2468 C   0  0  0  0  0  0
  -19.0525   19.1631  -16.2121 C   0  0  0  0  0  0
  -19.9319   20.1524  -15.9062 O   0  0  0  0  0  0
  1  2  1  0  0  0
  2  3  2  0  0  0
  2  9  1  0  0  0
  3  4  1  0  0  0
  3  5  1  0  0  0
  5  6  1  0  0  0
  5  8  2  0  0  0
  6  7  3  0  0  0
  8  9  1  0  0  0
  8 10  1  0  0  0
 10 11  2  0  0  0
 11 12  1  0  0  0
 12 13  2  0  0  0
 12 16  1  0  0  0
 13 14  1  0  0  0
 14 15  2  0  0  0
 15 16  1  0  0  0
M  END
>  <CHROM.0>
-62.55171804,-168.87179328,-167.28598722,63.79271315,-30.04915147,-178.20656881
-156.74781204,-162.15912287

>  <CHROM.1>
-175.05117818,2.78829555,-20.56509886,22.90957496,-13.14037197,2.01516302
-0.44285550,0.81259948

>  <Name>
F0777-1587

>  <RI>
2.52174e+07

>  <Rbt.Current_Directory>
/home/adria/Escritorio/rDock_CMTR_LC/2pxcA_model/inputs_sah

>  <Rbt.Executable>
rbdock ($Id: //depot/dev/client3/rdock/2013.1/src/exe/rbdock.cxx#4 $)

>  <Rbt.Library>
libRbt.so (2013.1, Build901 2013/11/27)

>  <Rbt.Parameter_File>
/home/adria/Escritorio/rDock_2013.1_src/data/scripts/dock.prm

>  <Rbt.Receptor>
sah_rdock.prm

>  <SCORE>
-36.1042

>  <SCORE.INTER>
-8.59663

>  <SCORE.INTER.CONST>
1

>  <SCORE.INTER.POLAR>
0

>  <SCORE.INTER.REPUL>
0.271227

>  <SCORE.INTER.ROT>
2

>  <SCORE.INTER.VDW>
-17.3528

>  <SCORE.INTER.norm>
-0.537289

>  <SCORE.INTRA>
-21.0098

>  <SCORE.INTRA.DIHEDRAL>
-47.1444

>  <SCORE.INTRA.DIHEDRAL.0>
47.9214

>  <SCORE.INTRA.POLAR>
0

>  <SCORE.INTRA.POLAR.0>
0

>  <SCORE.INTRA.REPUL>
0

>  <SCORE.INTRA.REPUL.0>
0

>  <SCORE.INTRA.VDW>
2.56238

>  <SCORE.INTRA.VDW.0>
-0.808333

>  <SCORE.INTRA.norm>
-1.31311

>  <SCORE.RESTR>
0

>  <SCORE.RESTR.CAVITY>
0

>  <SCORE.RESTR.norm>
0

>  <SCORE.SYSTEM>
-6.49777

>  <SCORE.SYSTEM.CONST>
0

>  <SCORE.SYSTEM.DIHEDRAL>
6.30775

>  <SCORE.SYSTEM.POLAR>
-3.72668

>  <SCORE.SYSTEM.VDW>
3.01905

>  <SCORE.SYSTEM.norm>
-0.406111

>  <SCORE.heavy>
16

>  <SCORE.norm>
-2.25651

$$$$
F0777-1587
  rDOCK(R)          3D
libRbt.so/2013.1/901 2013/11/27
 16 17  0  0  0  0  0  0  0  0999 V2000
  -18.8058   19.5030  -16.7425 C   0  0  0  0  0  0
  -19.3562   19.7178  -15.3696 C   0  0  0  0  0  0
  -19.6761   18.7707  -14.4095 C   0  0  0  0  0  0
  -19.5148   17.2903  -14.5745 C   0  0  0  0  0  0
  -20.1629   19.4041  -13.2076 C   0  0  0  0  0  0
  -20.5599   18.6973  -12.0229 C   0  0  0  0  0  0
  -20.8923   18.0885  -11.0932 N   0  0  0  0  0  0
  -20.2119   20.7843  -13.2929 C   0  0  0  0  0  0
  -19.6492   21.3101  -14.8276 S   0  0  0  0  0  0
  -20.5571   21.7134  -12.3604 N   0  0  0  0  0  0
  -20.6431   22.9288  -12.8019 C   0  0  0  0  0  0
  -20.9761   24.0046  -11.9127 C   0  0  0  0  0  0
  -21.5421   25.2459  -12.1283 C   0  0  0  0  0  0
  -21.6166   25.8820  -10.8661 C   0  0  0  0  0  0
  -21.0919   24.9920   -9.9591 C   0  0  0  0  0  0
  -20.7105   23.8461  -10.5813 O   0  0  0  0  0  0
  1  2  1  0  0  0
  2  3  2  0  0  0
  2  9  1  0  0  0
  3  4  1  0  0  0
  3  5  1  0  0  0
  5  6  1  0  0  0
  5  8  2  0  0  0
  6  7  3  0  0  0
  8  9  1  0  0  0
  8 10  1  0  0  0
 10 11  2  0  0  0
 11 12  1  0  0  0
 12 13  2  0  0  0
 12 16  1  0  0  0
 13 14  1  0  0  0
 14 15  2  0  0  0
 15 16  1  0  0  0
M  END
>  <CHROM.0>
-178.42564197,-72.07541812,-11.27043566,63.06815136,-30.97903824,-58.23497441
57.03683399,-163.47146594

>  <CHROM.1>
-172.62147512,-155.84964013,-20.30489465,21.37701086,-13.04113314,-0.78239529
1.24777726,-0.22381403

>  <Name>
F0777-1587

>  <RI>
2.52174e+07

>  <Rbt.Current_Directory>
/home/adria/Escritorio/rDock_CMTR_LC/2pxcA_model/inputs_sah

>  <Rbt.Executable>
rbdock ($Id: //depot/dev/client3/rdock/2013.1/src/exe/rbdock.cxx#4 $)

>  <Rbt.Library>
libRbt.so (2013.1, Build901 2013/11/27)

>  <Rbt.Parameter_File>
/home/adria/Escritorio/rDock_2013.1_src/data/scripts/dock.prm

>  <Rbt.Receptor>
sah_rdock.prm

>  <SCORE>
-38.9475

>  <SCORE.INTER>
-13.3763

>  <SCORE.INTER.CONST>
1

>  <SCORE.INTER.POLAR>
-0.806052

>  <SCORE.INTER.REPUL>
0.00861605

>  <SCORE.INTER.ROT>
2

>  <SCORE.INTER.VDW>
-18.0788

>  <SCORE.INTER.norm>
-0.836018

>  <SCORE.INTRA>
-19.8604

>  <SCORE.INTRA.DIHEDRAL>
-44.6893

>  <SCORE.INTRA.DIHEDRAL.0>
47.9214

>  <SCORE.INTRA.POLAR>
0

>  <SCORE.INTRA.POLAR.0>
0

>  <SCORE.INTRA.REPUL>
0

>  <SCORE.INTRA.REPUL.0>
0

>  <SCORE.INTRA.VDW>
2.48428

>  <SCORE.INTRA.VDW.0>
-0.808333

>  <SCORE.INTRA.norm>
-1.24127

>  <SCORE.RESTR>
0

>  <SCORE.RESTR.CAVITY>
0

>  <SCORE.RESTR.norm>
0

>  <SCORE.SYSTEM>
-5.71081

>  <SCORE.SYSTEM.CONST>
0

>  <SCORE.SYSTEM.DIHEDRAL>
7.88442

>  <SCORE.SYSTEM.POLAR>
-3.89066

>  <SCORE.SYSTEM.REPUL>
0.0368428

>  <SCORE.SYSTEM.VDW>
3.391

>  <SCORE.SYSTEM.norm>
-0.356926

>  <SCORE.heavy>
16

>  <SCORE.norm>
-2.43422

$$$$
