F3285-1784
  rDOCK(R)          3D
libRbt.so/2013.1/901 2013/11/27
 33 36  0  0  0  0  0  0  0  0999 V2000
  -20.6464   22.5501  -13.3888 C   0  0  0  0  0  0
  -20.1477   21.4181  -12.5014 C   0  0  0  0  0  0
  -20.7200   20.1152  -12.8954 N   0  0  0  0  0  0
  -19.9252   19.2344  -13.6208 C   0  0  0  0  0  0
  -20.1503   17.9876  -14.0328 C   0  0  0  0  0  0
  -21.5276   17.0062  -13.7762 S   0  0  0  0  0  0
  -22.5698   17.6382  -15.0834 C   0  0  0  0  0  0
  -23.9423   17.8428  -14.8956 C   0  0  0  0  0  0
  -24.7438   18.2825  -15.9508 C   0  0  0  0  0  0
  -24.1746   18.5459  -17.1944 C   0  0  0  0  0  0
  -22.8026   18.3832  -17.3800 C   0  0  0  0  0  0
  -22.0018   17.9340  -16.3270 C   0  0  0  0  0  0
  -19.0089   17.5397  -14.8525 C   0  0  0  0  0  0
  -18.9249   16.4097  -15.3054 O   0  0  0  0  0  0
  -18.1571   18.6060  -14.9904 N   0  0  0  0  0  0
  -18.6284   19.6477  -14.2326 C   0  0  0  0  0  0
  -18.1452   20.7545  -14.0406 O   0  0  0  0  0  0
  -16.9812   18.6330  -15.8085 C   0  0  0  0  0  0
  -16.6103   17.5358  -16.6079 C   0  0  0  0  0  0
  -15.4788   17.5630  -17.4485 C   0  0  0  0  0  0
  -14.6900   18.7158  -17.4888 C   0  0  0  0  0  0
  -15.0283   19.8125  -16.7072 C   0  0  0  0  0  0
  -16.1577   19.7690  -15.8811 C   0  0  0  0  0  0
  -15.1169   16.3748  -18.3069 C   0  0  0  0  0  0
  -16.1857   15.6211  -18.6844 F   0  0  0  0  0  0
  -14.4961   16.7431  -19.4625 F   0  0  0  0  0  0
  -14.2609   15.5220  -17.6792 F   0  0  0  0  0  0
  -21.9701   19.7287  -12.3454 C   0  0  0  0  0  0
  -22.0791   18.7588  -11.3322 C   0  0  0  0  0  0
  -23.3169   18.3892  -10.7880 C   0  0  0  0  0  0
  -24.4869   18.9824  -11.2434 C   0  0  0  0  0  0
  -24.4161   19.9533  -12.2332 C   0  0  0  0  0  0
  -23.1752   20.3255  -12.7665 C   0  0  0  0  0  0
  1  2  1  0  0  0
  2  3  1  0  0  0
  3  4  1  0  0  0
  3 28  1  0  0  0
  4  5  2  0  0  0
  4 16  1  0  0  0
  5  6  1  0  0  0
  5 13  1  0  0  0
  6  7  1  0  0  0
  7  8  2  0  0  0
  7 12  1  0  0  0
  8  9  1  0  0  0
  9 10  2  0  0  0
 10 11  1  0  0  0
 11 12  2  0  0  0
 13 14  2  0  0  0
 13 15  1  0  0  0
 15 16  1  0  0  0
 15 18  1  0  0  0
 16 17  2  0  0  0
 18 19  2  0  0  0
 18 23  1  0  0  0
 19 20  1  0  0  0
 20 21  2  0  0  0
 20 24  1  0  0  0
 21 22  1  0  0  0
 22 23  2  0  0  0
 24 25  1  0  0  0
 24 26  1  0  0  0
 24 27  1  0  0  0
 28 29  2  0  0  0
 28 33  1  0  0  0
 29 30  1  0  0  0
 30 31  2  0  0  0
 31 32  1  0  0  0
 32 33  2  0  0  0
M  END
>  <CHROM.0>
-60.35900601,-166.25199199,-43.96005424,63.98444932,-29.95388527,-179.18476307
82.67600402,-162.71031612

>  <CHROM.1>
102.46659909,175.59792745,-104.86678692,82.18979123,-139.92207383,2.24822309
29.02367399,-19.61453253,18.42581152,-15.07292359,-2.59625296,-0.20753001
-2.30747132

>  <Name>
F3285-1784

>  <RI>
2.74661e+07

>  <Rbt.Current_Directory>
/home/adria/Escritorio/rDock_CMTR_LC/2pxcA_model/inputs_sah

>  <Rbt.Executable>
rbdock ($Id: //depot/dev/client3/rdock/2013.1/src/exe/rbdock.cxx#4 $)

>  <Rbt.Library>
libRbt.so (2013.1, Build901 2013/11/27)

>  <Rbt.Parameter_File>
/home/adria/Escritorio/rDock_2013.1_src/data/scripts/dock.prm

>  <Rbt.Receptor>
sah_rdock.prm

>  <SCORE>
-60.261

>  <SCORE.INTER>
-12.6357

>  <SCORE.INTER.CONST>
1

>  <SCORE.INTER.POLAR>
0

>  <SCORE.INTER.REPUL>
0

>  <SCORE.INTER.ROT>
7

>  <SCORE.INTER.VDW>
-25.0357

>  <SCORE.INTER.norm>
-0.3829

>  <SCORE.INTRA>
-41.3956

>  <SCORE.INTRA.DIHEDRAL>
-85.1772

>  <SCORE.INTRA.DIHEDRAL.0>
106.227

>  <SCORE.INTRA.POLAR>
0

>  <SCORE.INTRA.POLAR.0>
0

>  <SCORE.INTRA.REPUL>
0

>  <SCORE.INTRA.REPUL.0>
0

>  <SCORE.INTRA.VDW>
1.19301

>  <SCORE.INTRA.VDW.0>
-3.6965

>  <SCORE.INTRA.norm>
-1.25441

>  <SCORE.RESTR>
0

>  <SCORE.RESTR.CAVITY>
0

>  <SCORE.RESTR.norm>
0

>  <SCORE.SYSTEM>
-6.22965

>  <SCORE.SYSTEM.CONST>
0

>  <SCORE.SYSTEM.DIHEDRAL>
6.73114

>  <SCORE.SYSTEM.POLAR>
-3.66967

>  <SCORE.SYSTEM.VDW>
2.88167

>  <SCORE.SYSTEM.norm>
-0.188777

>  <SCORE.heavy>
33

>  <SCORE.norm>
-1.82609

$$$$
F3285-1784
  rDOCK(R)          3D
libRbt.so/2013.1/901 2013/11/27
 33 36  0  0  0  0  0  0  0  0999 V2000
  -17.2555   13.4711  -14.8043 C   0  0  0  0  0  0
  -18.5334   14.2644  -15.0396 C   0  0  0  0  0  0
  -18.3364   15.3490  -16.0220 N   0  0  0  0  0  0
  -18.6551   16.6493  -15.6464 C   0  0  0  0  0  0
  -18.5843   17.7976  -16.3183 C   0  0  0  0  0  0
  -18.0327   18.0735  -17.9138 S   0  0  0  0  0  0
  -16.4372   18.7867  -17.5396 C   0  0  0  0  0  0
  -15.2566   18.2815  -18.0982 C   0  0  0  0  0  0
  -14.0183   18.8202  -17.7439 C   0  0  0  0  0  0
  -13.9529   19.8850  -16.8485 C   0  0  0  0  0  0
  -15.1254   20.4205  -16.3176 C   0  0  0  0  0  0
  -16.3641   19.8755  -16.6645 C   0  0  0  0  0  0
  -19.1382   18.8783  -15.4814 C   0  0  0  0  0  0
  -19.1374   20.0481  -15.8285 O   0  0  0  0  0  0
  -19.6301   18.3027  -14.3375 N   0  0  0  0  0  0
  -19.3292   16.9645  -14.3528 C   0  0  0  0  0  0
  -19.5431   16.1066  -13.5081 O   0  0  0  0  0  0
  -20.3571   18.9838  -13.3078 C   0  0  0  0  0  0
  -21.5014   18.4204  -12.7132 C   0  0  0  0  0  0
  -22.2029   19.0605  -11.6712 C   0  0  0  0  0  0
  -21.7542   20.3019  -11.2126 C   0  0  0  0  0  0
  -20.6308   20.8849  -11.7835 C   0  0  0  0  0  0
  -19.9444   20.2330  -12.8149 C   0  0  0  0  0  0
  -23.4180   18.4218  -11.0424 C   0  0  0  0  0  0
  -24.5660   18.6044  -11.7508 F   0  0  0  0  0  0
  -23.2785   17.0736  -10.9033 F   0  0  0  0  0  0
  -23.6692   18.9016   -9.7931 F   0  0  0  0  0  0
  -17.6400   15.0578  -17.2240 C   0  0  0  0  0  0
  -16.2732   15.3464  -17.3908 C   0  0  0  0  0  0
  -15.5905   15.0474  -18.5780 C   0  0  0  0  0  0
  -16.2584   14.4477  -19.6375 C   0  0  0  0  0  0
  -17.6048   14.1364  -19.5035 C   0  0  0  0  0  0
  -18.2794   14.4289  -18.3109 C   0  0  0  0  0  0
  1  2  1  0  0  0
  2  3  1  0  0  0
  3  4  1  0  0  0
  3 28  1  0  0  0
  4  5  2  0  0  0
  4 16  1  0  0  0
  5  6  1  0  0  0
  5 13  1  0  0  0
  6  7  1  0  0  0
  7  8  2  0  0  0
  7 12  1  0  0  0
  8  9  1  0  0  0
  9 10  2  0  0  0
 10 11  1  0  0  0
 11 12  2  0  0  0
 13 14  2  0  0  0
 13 15  1  0  0  0
 15 16  1  0  0  0
 15 18  1  0  0  0
 16 17  2  0  0  0
 18 19  2  0  0  0
 18 23  1  0  0  0
 19 20  1  0  0  0
 20 21  2  0  0  0
 20 24  1  0  0  0
 21 22  1  0  0  0
 22 23  2  0  0  0
 24 25  1  0  0  0
 24 26  1  0  0  0
 24 27  1  0  0  0
 28 29  2  0  0  0
 28 33  1  0  0  0
 29 30  1  0  0  0
 30 31  2  0  0  0
 31 32  1  0  0  0
 32 33  2  0  0  0
M  END
>  <CHROM.0>
-177.49984800,-74.17177849,-165.03946805,62.35894843,-29.25018385,-177.56400012
-35.99723518,-163.75095427

>  <CHROM.1>
-124.33001307,-179.67012765,-98.00235518,-104.09554156,126.79181729,136.99963496
-81.68926772,-18.94518771,17.62967887,-15.10100125,0.45498446,-0.70787391
-2.81620242

>  <Name>
F3285-1784

>  <RI>
2.74661e+07

>  <Rbt.Current_Directory>
/home/adria/Escritorio/rDock_CMTR_LC/2pxcA_model/inputs_sah

>  <Rbt.Executable>
rbdock ($Id: //depot/dev/client3/rdock/2013.1/src/exe/rbdock.cxx#4 $)

>  <Rbt.Library>
libRbt.so (2013.1, Build901 2013/11/27)

>  <Rbt.Parameter_File>
/home/adria/Escritorio/rDock_2013.1_src/data/scripts/dock.prm

>  <Rbt.Receptor>
sah_rdock.prm

>  <SCORE>
-59.0824

>  <SCORE.INTER>
-14.623

>  <SCORE.INTER.CONST>
1

>  <SCORE.INTER.POLAR>
-0.35304

>  <SCORE.INTER.REPUL>
0

>  <SCORE.INTER.ROT>
7

>  <SCORE.INTER.VDW>
-25.8227

>  <SCORE.INTER.norm>
-0.443121

>  <SCORE.INTRA>
-37.4135

>  <SCORE.INTRA.DIHEDRAL>
-78.3641

>  <SCORE.INTRA.DIHEDRAL.0>
106.227

>  <SCORE.INTRA.POLAR>
0

>  <SCORE.INTRA.POLAR.0>
0

>  <SCORE.INTRA.REPUL>
0

>  <SCORE.INTRA.REPUL.0>
0

>  <SCORE.INTRA.VDW>
1.76857

>  <SCORE.INTRA.VDW.0>
-3.6965

>  <SCORE.INTRA.norm>
-1.13374

>  <SCORE.RESTR>
0

>  <SCORE.RESTR.CAVITY>
0

>  <SCORE.RESTR.norm>
0

>  <SCORE.SYSTEM>
-7.04594

>  <SCORE.SYSTEM.CONST>
0

>  <SCORE.SYSTEM.DIHEDRAL>
6.90513

>  <SCORE.SYSTEM.POLAR>
-4.00895

>  <SCORE.SYSTEM.REPUL>
0.0405606

>  <SCORE.SYSTEM.VDW>
2.92914

>  <SCORE.SYSTEM.norm>
-0.213513

>  <SCORE.heavy>
33

>  <SCORE.norm>
-1.79038

$$$$
F3285-1784
  rDOCK(R)          3D
libRbt.so/2013.1/901 2013/11/27
 33 36  0  0  0  0  0  0  0  0999 V2000
  -24.1012   17.8756  -15.9432 C   0  0  0  0  0  0
  -23.3071   16.9618  -15.0201 C   0  0  0  0  0  0
  -22.6913   17.7059  -13.9032 N   0  0  0  0  0  0
  -21.4572   18.3118  -14.1113 C   0  0  0  0  0  0
  -20.7260   19.1023  -13.3267 C   0  0  0  0  0  0
  -21.0830   19.6812  -11.7572 S   0  0  0  0  0  0
  -21.3068   21.4123  -12.1408 C   0  0  0  0  0  0
  -20.2744   22.3428  -11.9701 C   0  0  0  0  0  0
  -20.4937   23.6984  -12.2223 C   0  0  0  0  0  0
  -21.7392   24.1302  -12.6721 C   0  0  0  0  0  0
  -22.7613   23.2060  -12.8829 C   0  0  0  0  0  0
  -22.5452   21.8507  -12.6215 C   0  0  0  0  0  0
  -19.4451   19.3924  -13.9979 C   0  0  0  0  0  0
  -18.6100   20.1477  -13.5277 O   0  0  0  0  0  0
  -19.4117   18.6590  -15.1566 N   0  0  0  0  0  0
  -20.6156   18.0195  -15.3085 C   0  0  0  0  0  0
  -21.0132   17.3106  -16.2221 O   0  0  0  0  0  0
  -18.2950   18.5606  -16.0488 C   0  0  0  0  0  0
  -17.1943   19.4325  -15.9558 C   0  0  0  0  0  0
  -16.0708   19.3220  -16.8004 C   0  0  0  0  0  0
  -16.0465   18.3164  -17.7704 C   0  0  0  0  0  0
  -17.1204   17.4444  -17.8891 C   0  0  0  0  0  0
  -18.2262   17.5667  -17.0394 C   0  0  0  0  0  0
  -14.8979   20.2630  -16.6642 C   0  0  0  0  0  0
  -14.1199   20.3395  -17.7786 F   0  0  0  0  0  0
  -15.2895   21.5403  -16.3968 F   0  0  0  0  0  0
  -14.0628   19.9087  -15.6488 F   0  0  0  0  0  0
  -23.4680   17.9506  -12.7407 C   0  0  0  0  0  0
  -24.1136   19.1794  -12.5117 C   0  0  0  0  0  0
  -24.8863   19.4100  -11.3651 C   0  0  0  0  0  0
  -25.0367   18.4131  -10.4102 C   0  0  0  0  0  0
  -24.4246   17.1830  -10.6095 C   0  0  0  0  0  0
  -23.6615   16.9552  -11.7622 C   0  0  0  0  0  0
  1  2  1  0  0  0
  2  3  1  0  0  0
  3  4  1  0  0  0
  3 28  1  0  0  0
  4  5  2  0  0  0
  4 16  1  0  0  0
  5  6  1  0  0  0
  5 13  1  0  0  0
  6  7  1  0  0  0
  7  8  2  0  0  0
  7 12  1  0  0  0
  8  9  1  0  0  0
  9 10  2  0  0  0
 10 11  1  0  0  0
 11 12  2  0  0  0
 13 14  2  0  0  0
 13 15  1  0  0  0
 15 16  1  0  0  0
 15 18  1  0  0  0
 16 17  2  0  0  0
 18 19  2  0  0  0
 18 23  1  0  0  0
 19 20  1  0  0  0
 20 21  2  0  0  0
 20 24  1  0  0  0
 21 22  1  0  0  0
 22 23  2  0  0  0
 24 25  1  0  0  0
 24 26  1  0  0  0
 24 27  1  0  0  0
 28 29  2  0  0  0
 28 33  1  0  0  0
 29 30  1  0  0  0
 30 31  2  0  0  0
 31 32  1  0  0  0
 32 33  2  0  0  0
M  END
>  <CHROM.0>
-61.42662192,67.66255134,71.31789810,63.75804243,-31.00441824,-176.68400868
-156.26134964,-164.06562977

>  <CHROM.1>
-85.26044863,175.08512852,-99.00272882,-111.43488981,-96.86531861,-13.02777100
-159.25807160,-20.10398084,19.47535212,-14.24877150,2.91935246,0.48531008
0.55500568

>  <Name>
F3285-1784

>  <RI>
2.74661e+07

>  <Rbt.Current_Directory>
/home/adria/Escritorio/rDock_CMTR_LC/2pxcA_model/inputs_sah

>  <Rbt.Executable>
rbdock ($Id: //depot/dev/client3/rdock/2013.1/src/exe/rbdock.cxx#4 $)

>  <Rbt.Library>
libRbt.so (2013.1, Build901 2013/11/27)

>  <Rbt.Parameter_File>
/home/adria/Escritorio/rDock_2013.1_src/data/scripts/dock.prm

>  <Rbt.Receptor>
sah_rdock.prm

>  <SCORE>
-57.2215

>  <SCORE.INTER>
-9.61926

>  <SCORE.INTER.CONST>
1

>  <SCORE.INTER.POLAR>
0

>  <SCORE.INTER.REPUL>
0.00203872

>  <SCORE.INTER.ROT>
7

>  <SCORE.INTER.VDW>
-22.0295

>  <SCORE.INTER.norm>
-0.291493

>  <SCORE.INTRA>
-40.0283

>  <SCORE.INTRA.DIHEDRAL>
-82.8891

>  <SCORE.INTRA.DIHEDRAL.0>
106.227

>  <SCORE.INTRA.POLAR>
0

>  <SCORE.INTRA.POLAR.0>
0

>  <SCORE.INTRA.REPUL>
0

>  <SCORE.INTRA.REPUL.0>
0

>  <SCORE.INTRA.VDW>
1.41626

>  <SCORE.INTRA.VDW.0>
-3.6965

>  <SCORE.INTRA.norm>
-1.21298

>  <SCORE.RESTR>
0

>  <SCORE.RESTR.CAVITY>
0

>  <SCORE.RESTR.norm>
0

>  <SCORE.SYSTEM>
-7.57397

>  <SCORE.SYSTEM.CONST>
0

>  <SCORE.SYSTEM.DIHEDRAL>
5.69245

>  <SCORE.SYSTEM.POLAR>
-3.78479

>  <SCORE.SYSTEM.VDW>
2.4481

>  <SCORE.SYSTEM.norm>
-0.229514

>  <SCORE.heavy>
33

>  <SCORE.norm>
-1.73399

$$$$
F3285-1784
  rDOCK(R)          3D
libRbt.so/2013.1/901 2013/11/27
 33 36  0  0  0  0  0  0  0  0999 V2000
  -23.4373   21.3763   -9.2882 C   0  0  0  0  0  0
  -23.4699   20.9293  -10.7432 C   0  0  0  0  0  0
  -22.3152   21.4454  -11.5050 N   0  0  0  0  0  0
  -21.4378   20.5317  -12.0786 C   0  0  0  0  0  0
  -21.4290   19.1995  -12.0667 C   0  0  0  0  0  0
  -22.5141   18.1274  -11.2926 S   0  0  0  0  0  0
  -23.6811   17.8979  -12.6266 C   0  0  0  0  0  0
  -24.8842   18.6124  -12.6823 C   0  0  0  0  0  0
  -25.8043   18.3717  -13.7044 C   0  0  0  0  0  0
  -25.5170   17.4337  -14.6930 C   0  0  0  0  0  0
  -24.3047   16.7460  -14.6682 C   0  0  0  0  0  0
  -23.3878   16.9796  -13.6403 C   0  0  0  0  0  0
  -20.3233   18.7194  -12.9165 C   0  0  0  0  0  0
  -20.0461   17.5367  -13.0329 O   0  0  0  0  0  0
  -19.7514   19.8171  -13.5077 N   0  0  0  0  0  0
  -20.3474   20.9473  -13.0087 C   0  0  0  0  0  0
  -20.1018   22.1237  -13.2342 O   0  0  0  0  0  0
  -18.7172   19.7860  -14.4988 C   0  0  0  0  0  0
  -18.0670   18.5892  -14.8526 C   0  0  0  0  0  0
  -17.0763   18.5365  -15.8544 C   0  0  0  0  0  0
  -16.7188   19.7128  -16.5187 C   0  0  0  0  0  0
  -17.3396   20.9097  -16.1875 C   0  0  0  0  0  0
  -18.3239   20.9426  -15.1926 C   0  0  0  0  0  0
  -16.4089   17.2332  -16.2228 C   0  0  0  0  0  0
  -15.2774   16.9728  -15.5122 F   0  0  0  0  0  0
  -17.2261   16.1611  -16.0249 F   0  0  0  0  0  0
  -16.0455   17.1881  -17.5342 F   0  0  0  0  0  0
  -22.2611   22.8331  -11.7983 C   0  0  0  0  0  0
  -21.3078   23.6887  -11.2167 C   0  0  0  0  0  0
  -21.2553   25.0566  -11.5186 C   0  0  0  0  0  0
  -22.1589   25.6105  -12.4158 C   0  0  0  0  0  0
  -23.1053   24.7933  -13.0192 C   0  0  0  0  0  0
  -23.1466   23.4252  -12.7208 C   0  0  0  0  0  0
  1  2  1  0  0  0
  2  3  1  0  0  0
  3  4  1  0  0  0
  3 28  1  0  0  0
  4  5  2  0  0  0
  4 16  1  0  0  0
  5  6  1  0  0  0
  5 13  1  0  0  0
  6  7  1  0  0  0
  7  8  2  0  0  0
  7 12  1  0  0  0
  8  9  1  0  0  0
  9 10  2  0  0  0
 10 11  1  0  0  0
 11 12  2  0  0  0
 13 14  2  0  0  0
 13 15  1  0  0  0
 15 16  1  0  0  0
 15 18  1  0  0  0
 16 17  2  0  0  0
 18 19  2  0  0  0
 18 23  1  0  0  0
 19 20  1  0  0  0
 20 21  2  0  0  0
 20 24  1  0  0  0
 21 22  1  0  0  0
 22 23  2  0  0  0
 24 25  1  0  0  0
 24 26  1  0  0  0
 24 27  1  0  0  0
 28 29  2  0  0  0
 28 33  1  0  0  0
 29 30  1  0  0  0
 30 31  2  0  0  0
 31 32  1  0  0  0
 32 33  2  0  0  0
M  END
>  <CHROM.0>
-62.07634403,66.93817353,112.46756078,67.29571002,-29.51432239,-57.77554011
-157.79048155,-162.60644316

>  <CHROM.1>
119.01803526,-0.59409076,111.62008444,91.41812472,-98.54259191,-7.74788439
-90.81934371,-20.73549830,19.76901984,-13.49538451,-2.53588503,-0.42885653
-2.85021363

>  <Name>
F3285-1784

>  <RI>
2.74661e+07

>  <Rbt.Current_Directory>
/home/adria/Escritorio/rDock_CMTR_LC/2pxcA_model/inputs_sah

>  <Rbt.Executable>
rbdock ($Id: //depot/dev/client3/rdock/2013.1/src/exe/rbdock.cxx#4 $)

>  <Rbt.Library>
libRbt.so (2013.1, Build901 2013/11/27)

>  <Rbt.Parameter_File>
/home/adria/Escritorio/rDock_2013.1_src/data/scripts/dock.prm

>  <Rbt.Receptor>
sah_rdock.prm

>  <SCORE>
-58.1956

>  <SCORE.INTER>
-10.3482

>  <SCORE.INTER.CONST>
1

>  <SCORE.INTER.POLAR>
-0.307457

>  <SCORE.INTER.REPUL>
0

>  <SCORE.INTER.ROT>
7

>  <SCORE.INTER.VDW>
-21.7028

>  <SCORE.INTER.norm>
-0.313582

>  <SCORE.INTRA>
-40.7517

>  <SCORE.INTRA.DIHEDRAL>
-84.1232

>  <SCORE.INTRA.DIHEDRAL.0>
106.227

>  <SCORE.INTRA.POLAR>
0

>  <SCORE.INTRA.POLAR.0>
0

>  <SCORE.INTRA.REPUL>
0

>  <SCORE.INTRA.REPUL.0>
0

>  <SCORE.INTRA.VDW>
1.30991

>  <SCORE.INTRA.VDW.0>
-3.6965

>  <SCORE.INTRA.norm>
-1.2349

>  <SCORE.RESTR>
0

>  <SCORE.RESTR.CAVITY>
0

>  <SCORE.RESTR.norm>
0

>  <SCORE.SYSTEM>
-7.09567

>  <SCORE.SYSTEM.CONST>
0

>  <SCORE.SYSTEM.DIHEDRAL>
9.1963

>  <SCORE.SYSTEM.POLAR>
-4.33707

>  <SCORE.SYSTEM.VDW>
3.0522

>  <SCORE.SYSTEM.norm>
-0.21502

>  <SCORE.heavy>
33

>  <SCORE.norm>
-1.7635

$$$$
F3285-1784
  rDOCK(R)          3D
libRbt.so/2013.1/901 2013/11/27
 33 36  0  0  0  0  0  0  0  0999 V2000
  -20.5910   23.6224  -12.1986 C   0  0  0  0  0  0
  -20.8168   22.6668  -13.3620 C   0  0  0  0  0  0
  -21.0938   21.2917  -12.9008 N   0  0  0  0  0  0
  -20.2078   20.2816  -13.2589 C   0  0  0  0  0  0
  -20.2192   18.9744  -13.0015 C   0  0  0  0  0  0
  -21.3500   18.0715  -12.0894 S   0  0  0  0  0  0
  -22.4144   17.5301  -13.4190 C   0  0  0  0  0  0
  -22.1035   17.7855  -14.7604 C   0  0  0  0  0  0
  -22.9812   17.4024  -15.7763 C   0  0  0  0  0  0
  -24.1638   16.7378  -15.4606 C   0  0  0  0  0  0
  -24.4630   16.4439  -14.1312 C   0  0  0  0  0  0
  -23.5896   16.8356  -13.1135 C   0  0  0  0  0  0
  -19.0877   18.3377  -13.7011 C   0  0  0  0  0  0
  -18.8236   17.1519  -13.5859 O   0  0  0  0  0  0
  -18.4765   19.3032  -14.4599 N   0  0  0  0  0  0
  -19.0751   20.5104  -14.2032 C   0  0  0  0  0  0
  -18.8033   21.6231  -14.6310 O   0  0  0  0  0  0
  -17.4041   19.0822  -15.3840 C   0  0  0  0  0  0
  -17.0540   17.7895  -15.8161 C   0  0  0  0  0  0
  -16.0282   17.5601  -16.7557 C   0  0  0  0  0  0
  -15.3264   18.6511  -17.2752 C   0  0  0  0  0  0
  -15.6461   19.9380  -16.8637 C   0  0  0  0  0  0
  -16.6703   20.1473  -15.9326 C   0  0  0  0  0  0
  -15.6876   16.1616  -17.2119 C   0  0  0  0  0  0
  -16.1843   15.8454  -18.4392 F   0  0  0  0  0  0
  -14.3428   15.9582  -17.2923 F   0  0  0  0  0  0
  -16.1587   15.2086  -16.3610 F   0  0  0  0  0  0
  -22.1245   21.0908  -11.9459 C   0  0  0  0  0  0
  -21.8619   20.6459  -10.6374 C   0  0  0  0  0  0
  -22.8848   20.4585   -9.6974 C   0  0  0  0  0  0
  -24.2061   20.7125  -10.0407 C   0  0  0  0  0  0
  -24.5011   21.1656  -11.3195 C   0  0  0  0  0  0
  -23.4734   21.3602  -12.2516 C   0  0  0  0  0  0
  1  2  1  0  0  0
  2  3  1  0  0  0
  3  4  1  0  0  0
  3 28  1  0  0  0
  4  5  2  0  0  0
  4 16  1  0  0  0
  5  6  1  0  0  0
  5 13  1  0  0  0
  6  7  1  0  0  0
  7  8  2  0  0  0
  7 12  1  0  0  0
  8  9  1  0  0  0
  9 10  2  0  0  0
 10 11  1  0  0  0
 11 12  2  0  0  0
 13 14  2  0  0  0
 13 15  1  0  0  0
 15 16  1  0  0  0
 15 18  1  0  0  0
 16 17  2  0  0  0
 18 19  2  0  0  0
 18 23  1  0  0  0
 19 20  1  0  0  0
 20 21  2  0  0  0
 20 24  1  0  0  0
 21 22  1  0  0  0
 22 23  2  0  0  0
 24 25  1  0  0  0
 24 26  1  0  0  0
 24 27  1  0  0  0
 28 29  2  0  0  0
 28 33  1  0  0  0
 29 30  1  0  0  0
 30 31  2  0  0  0
 31 32  1  0  0  0
 32 33  2  0  0  0
M  END
>  <CHROM.0>
-59.53955752,-167.09670403,75.15402884,64.96938695,-31.19529246,178.24256757
-37.76046790,-158.19654307

>  <CHROM.1>
-117.79561288,-179.06491076,-113.35900132,94.48423396,5.77919376,13.80087622
102.09025957,-19.82919633,18.85796180,-14.18251575,-2.56733870,-0.42973402
-2.70202948

>  <Name>
F3285-1784

>  <RI>
2.74661e+07

>  <Rbt.Current_Directory>
/home/adria/Escritorio/rDock_CMTR_LC/2pxcA_model/inputs_sah

>  <Rbt.Executable>
rbdock ($Id: //depot/dev/client3/rdock/2013.1/src/exe/rbdock.cxx#4 $)

>  <Rbt.Library>
libRbt.so (2013.1, Build901 2013/11/27)

>  <Rbt.Parameter_File>
/home/adria/Escritorio/rDock_2013.1_src/data/scripts/dock.prm

>  <Rbt.Receptor>
sah_rdock.prm

>  <SCORE>
-59.6824

>  <SCORE.INTER>
-13.5674

>  <SCORE.INTER.CONST>
1

>  <SCORE.INTER.POLAR>
-0.603629

>  <SCORE.INTER.REPUL>
0

>  <SCORE.INTER.ROT>
7

>  <SCORE.INTER.VDW>
-23.915

>  <SCORE.INTER.norm>
-0.411133

>  <SCORE.INTRA>
-39.6394

>  <SCORE.INTRA.DIHEDRAL>
-85.541

>  <SCORE.INTRA.DIHEDRAL.0>
106.227

>  <SCORE.INTRA.POLAR>
0

>  <SCORE.INTRA.POLAR.0>
0

>  <SCORE.INTRA.REPUL>
0

>  <SCORE.INTRA.REPUL.0>
0

>  <SCORE.INTRA.VDW>
3.13115

>  <SCORE.INTRA.VDW.0>
-3.6965

>  <SCORE.INTRA.norm>
-1.20119

>  <SCORE.RESTR>
0

>  <SCORE.RESTR.CAVITY>
0

>  <SCORE.RESTR.norm>
0

>  <SCORE.SYSTEM>
-6.47567

>  <SCORE.SYSTEM.CONST>
0

>  <SCORE.SYSTEM.DIHEDRAL>
6.58395

>  <SCORE.SYSTEM.POLAR>
-3.73775

>  <SCORE.SYSTEM.VDW>
2.9407

>  <SCORE.SYSTEM.norm>
-0.196232

>  <SCORE.heavy>
33

>  <SCORE.norm>
-1.80856

$$$$
F3285-1784
  rDOCK(R)          3D
libRbt.so/2013.1/901 2013/11/27
 33 36  0  0  0  0  0  0  0  0999 V2000
  -22.8669   19.3140  -10.6541 C   0  0  0  0  0  0
  -22.8829   19.5224  -12.1622 C   0  0  0  0  0  0
  -21.5719   19.9725  -12.6709 N   0  0  0  0  0  0
  -20.8281   19.0959  -13.4531 C   0  0  0  0  0  0
  -21.0848   17.8546  -13.8635 C   0  0  0  0  0  0
  -22.4491   16.8771  -13.5328 S   0  0  0  0  0  0
  -23.4647   17.3305  -14.9317 C   0  0  0  0  0  0
  -23.6466   18.6676  -15.3059 C   0  0  0  0  0  0
  -24.4916   18.9976  -16.3671 C   0  0  0  0  0  0
  -25.1407   17.9916  -17.0788 C   0  0  0  0  0  0
  -24.9349   16.6554  -16.7391 C   0  0  0  0  0  0
  -24.0969   16.3252  -15.6711 C   0  0  0  0  0  0
  -19.9986   17.4103  -14.7567 C   0  0  0  0  0  0
  -19.9488   16.2848  -15.2258 O   0  0  0  0  0  0
  -19.1511   18.4739  -14.9357 N   0  0  0  0  0  0
  -19.5692   19.5096  -14.1394 C   0  0  0  0  0  0
  -19.0692   20.6119  -13.9659 O   0  0  0  0  0  0
  -18.0277   18.5042  -15.8244 C   0  0  0  0  0  0
  -17.0173   19.4767  -15.7071 C   0  0  0  0  0  0
  -15.8860   19.4945  -16.5484 C   0  0  0  0  0  0
  -15.7613   18.5176  -17.5398 C   0  0  0  0  0  0
  -16.7450   17.5482  -17.6826 C   0  0  0  0  0  0
  -17.8598   17.5438  -16.8359 C   0  0  0  0  0  0
  -14.8106   20.5418  -16.3861 C   0  0  0  0  0  0
  -15.2853   21.8165  -16.3350 F   0  0  0  0  0  0
  -14.0896   20.3683  -15.2431 F   0  0  0  0  0  0
  -13.9066   20.5200  -17.4042 F   0  0  0  0  0  0
  -21.2186   21.3390  -12.5213 C   0  0  0  0  0  0
  -21.7738   22.3522  -13.3241 C   0  0  0  0  0  0
  -21.4262   23.7007  -13.1641 C   0  0  0  0  0  0
  -20.5094   24.0765  -12.1912 C   0  0  0  0  0  0
  -19.9511   23.1048  -11.3717 C   0  0  0  0  0  0
  -20.3097   21.7598  -11.5301 C   0  0  0  0  0  0
  1  2  1  0  0  0
  2  3  1  0  0  0
  3  4  1  0  0  0
  3 28  1  0  0  0
  4  5  2  0  0  0
  4 16  1  0  0  0
  5  6  1  0  0  0
  5 13  1  0  0  0
  6  7  1  0  0  0
  7  8  2  0  0  0
  7 12  1  0  0  0
  8  9  1  0  0  0
  9 10  2  0  0  0
 10 11  1  0  0  0
 11 12  2  0  0  0
 13 14  2  0  0  0
 13 15  1  0  0  0
 15 16  1  0  0  0
 15 18  1  0  0  0
 16 17  2  0  0  0
 18 19  2  0  0  0
 18 23  1  0  0  0
 19 20  1  0  0  0
 20 21  2  0  0  0
 20 24  1  0  0  0
 21 22  1  0  0  0
 22 23  2  0  0  0
 24 25  1  0  0  0
 24 26  1  0  0  0
 24 27  1  0  0  0
 28 29  2  0  0  0
 28 33  1  0  0  0
 29 30  1  0  0  0
 30 31  2  0  0  0
 31 32  1  0  0  0
 32 33  2  0  0  0
M  END
>  <CHROM.0>
-60.88315820,-74.89155744,-45.84574752,-147.81738890,34.40705773,58.95486137
82.35824709,-160.20278966

>  <CHROM.1>
110.62523067,0.34022238,-75.15723579,91.18955633,-46.72113442,-163.30041752
-50.35272566,-19.90470709,19.38733803,-14.68559938,-3.12700940,-0.33089222
-2.46303225

>  <Name>
F3285-1784

>  <RI>
2.74661e+07

>  <Rbt.Current_Directory>
/home/adria/Escritorio/rDock_CMTR_LC/2pxcA_model/inputs_sah

>  <Rbt.Executable>
rbdock ($Id: //depot/dev/client3/rdock/2013.1/src/exe/rbdock.cxx#4 $)

>  <Rbt.Library>
libRbt.so (2013.1, Build901 2013/11/27)

>  <Rbt.Parameter_File>
/home/adria/Escritorio/rDock_2013.1_src/data/scripts/dock.prm

>  <Rbt.Receptor>
sah_rdock.prm

>  <SCORE>
-39.6008

>  <SCORE.INTER>
-6.98026

>  <SCORE.INTER.CONST>
1

>  <SCORE.INTER.POLAR>
0

>  <SCORE.INTER.REPUL>
0

>  <SCORE.INTER.ROT>
7

>  <SCORE.INTER.VDW>
-19.3803

>  <SCORE.INTER.norm>
-0.211523

>  <SCORE.INTRA>
-40.4477

>  <SCORE.INTRA.DIHEDRAL>
-82.8931

>  <SCORE.INTRA.DIHEDRAL.0>
106.227

>  <SCORE.INTRA.POLAR>
0

>  <SCORE.INTRA.POLAR.0>
0

>  <SCORE.INTRA.REPUL>
0

>  <SCORE.INTRA.REPUL.0>
0

>  <SCORE.INTRA.VDW>
0.998837

>  <SCORE.INTRA.VDW.0>
-3.6965

>  <SCORE.INTRA.norm>
-1.22569

>  <SCORE.RESTR>
0

>  <SCORE.RESTR.CAVITY>
0

>  <SCORE.RESTR.norm>
0

>  <SCORE.SYSTEM>
7.82723

>  <SCORE.SYSTEM.CONST>
0

>  <SCORE.SYSTEM.DIHEDRAL>
9.95544

>  <SCORE.SYSTEM.POLAR>
-3.71274

>  <SCORE.SYSTEM.REPUL>
0.041737

>  <SCORE.SYSTEM.VDW>
15.2641

>  <SCORE.SYSTEM.norm>
0.237189

>  <SCORE.heavy>
33

>  <SCORE.norm>
-1.20002

$$$$
F3285-1784
  rDOCK(R)          3D
libRbt.so/2013.1/901 2013/11/27
 33 36  0  0  0  0  0  0  0  0999 V2000
  -26.0569   18.9258  -13.9965 C   0  0  0  0  0  0
  -25.3047   20.2305  -14.2202 C   0  0  0  0  0  0
  -24.5359   20.6358  -13.0265 N   0  0  0  0  0  0
  -23.1537   20.4852  -13.0459 C   0  0  0  0  0  0
  -22.2216   20.8374  -12.1615 C   0  0  0  0  0  0
  -22.4139   21.6456  -10.6662 S   0  0  0  0  0  0
  -22.2767   23.3327  -11.2396 C   0  0  0  0  0  0
  -21.4543   24.2643  -10.5939 C   0  0  0  0  0  0
  -21.4101   25.5907  -11.0276 C   0  0  0  0  0  0
  -22.1678   25.9895  -12.1262 C   0  0  0  0  0  0
  -22.9590   25.0602  -12.7998 C   0  0  0  0  0  0
  -23.0109   23.7350  -12.3602 C   0  0  0  0  0  0
  -20.9088   20.3562  -12.6306 C   0  0  0  0  0  0
  -19.8681   20.5978  -12.0408 O   0  0  0  0  0  0
  -21.1221   19.6206  -13.7686 N   0  0  0  0  0  0
  -22.4509   19.6969  -14.1003 C   0  0  0  0  0  0
  -23.0436   19.2285  -15.0617 O   0  0  0  0  0  0
  -20.1247   18.8779  -14.4801 C   0  0  0  0  0  0
  -18.9881   19.5012  -15.0278 C   0  0  0  0  0  0
  -17.9787   18.7776  -15.6951 C   0  0  0  0  0  0
  -18.1092   17.3925  -15.8257 C   0  0  0  0  0  0
  -19.2223   16.7504  -15.2998 C   0  0  0  0  0  0
  -20.2131   17.4846  -14.6371 C   0  0  0  0  0  0
  -16.7626   19.4739  -16.2573 C   0  0  0  0  0  0
  -15.6405   19.3198  -15.5023 F   0  0  0  0  0  0
  -16.4380   19.0218  -17.5009 F   0  0  0  0  0  0
  -16.9459   20.8171  -16.3850 F   0  0  0  0  0  0
  -25.2048   21.3506  -11.9988 C   0  0  0  0  0  0
  -25.8611   22.5721  -12.2362 C   0  0  0  0  0  0
  -26.5273   23.2675  -11.2175 C   0  0  0  0  0  0
  -26.5567   22.7583   -9.9260 C   0  0  0  0  0  0
  -25.9308   21.5483   -9.6579 C   0  0  0  0  0  0
  -25.2749   20.8532  -10.6823 C   0  0  0  0  0  0
  1  2  1  0  0  0
  2  3  1  0  0  0
  3  4  1  0  0  0
  3 28  1  0  0  0
  4  5  2  0  0  0
  4 16  1  0  0  0
  5  6  1  0  0  0
  5 13  1  0  0  0
  6  7  1  0  0  0
  7  8  2  0  0  0
  7 12  1  0  0  0
  8  9  1  0  0  0
  9 10  2  0  0  0
 10 11  1  0  0  0
 11 12  2  0  0  0
 13 14  2  0  0  0
 13 15  1  0  0  0
 15 16  1  0  0  0
 15 18  1  0  0  0
 16 17  2  0  0  0
 18 19  2  0  0  0
 18 23  1  0  0  0
 19 20  1  0  0  0
 20 21  2  0  0  0
 20 24  1  0  0  0
 21 22  1  0  0  0
 22 23  2  0  0  0
 24 25  1  0  0  0
 24 26  1  0  0  0
 24 27  1  0  0  0
 28 29  2  0  0  0
 28 33  1  0  0  0
 29 30  1  0  0  0
 30 31  2  0  0  0
 31 32  1  0  0  0
 32 33  2  0  0  0
M  END
>  <CHROM.0>
178.56143314,-167.32592541,-47.20849872,66.75729030,169.11268149,-60.58526924
-36.12189914,-163.15715274

>  <CHROM.1>
105.81883424,175.29733465,-57.67303926,-89.39682495,-132.60626511,-59.97189667
103.04116778,-21.67328881,20.87825765,-13.27117479,2.51609897,0.30379789
0.49881600

>  <Name>
F3285-1784

>  <RI>
2.74661e+07

>  <Rbt.Current_Directory>
/home/adria/Escritorio/rDock_CMTR_LC/2pxcA_model/inputs_sah

>  <Rbt.Executable>
rbdock ($Id: //depot/dev/client3/rdock/2013.1/src/exe/rbdock.cxx#4 $)

>  <Rbt.Library>
libRbt.so (2013.1, Build901 2013/11/27)

>  <Rbt.Parameter_File>
/home/adria/Escritorio/rDock_2013.1_src/data/scripts/dock.prm

>  <Rbt.Receptor>
sah_rdock.prm

>  <SCORE>
-42.5736

>  <SCORE.INTER>
-4.45769

>  <SCORE.INTER.CONST>
1

>  <SCORE.INTER.POLAR>
0

>  <SCORE.INTER.REPUL>
0.172262

>  <SCORE.INTER.ROT>
7

>  <SCORE.INTER.VDW>
-17.719

>  <SCORE.INTER.norm>
-0.135082

>  <SCORE.INTRA>
-37.0806

>  <SCORE.INTRA.DIHEDRAL>
-76.3072

>  <SCORE.INTRA.DIHEDRAL.0>
106.227

>  <SCORE.INTRA.POLAR>
0

>  <SCORE.INTRA.POLAR.0>
0

>  <SCORE.INTRA.REPUL>
0

>  <SCORE.INTRA.REPUL.0>
0

>  <SCORE.INTRA.VDW>
1.07302

>  <SCORE.INTRA.VDW.0>
-3.6965

>  <SCORE.INTRA.norm>
-1.12365

>  <SCORE.RESTR>
0

>  <SCORE.RESTR.CAVITY>
0

>  <SCORE.RESTR.norm>
0

>  <SCORE.SYSTEM>
-1.03529

>  <SCORE.SYSTEM.CONST>
0

>  <SCORE.SYSTEM.DIHEDRAL>
3.59213

>  <SCORE.SYSTEM.POLAR>
-3.58264

>  <SCORE.SYSTEM.VDW>
9.34961

>  <SCORE.SYSTEM.norm>
-0.0313725

>  <SCORE.heavy>
33

>  <SCORE.norm>
-1.29011

$$$$
F3285-1784
  rDOCK(R)          3D
libRbt.so/2013.1/901 2013/11/27
 33 36  0  0  0  0  0  0  0  0999 V2000
  -20.7127   23.6739  -12.2065 C   0  0  0  0  0  0
  -20.9673   22.7257  -13.3700 C   0  0  0  0  0  0
  -21.2468   21.3507  -12.9103 N   0  0  0  0  0  0
  -20.3364   20.3483  -13.2263 C   0  0  0  0  0  0
  -20.3228   19.0504  -12.9255 C   0  0  0  0  0  0
  -21.4436   18.1543  -11.9944 S   0  0  0  0  0  0
  -22.4912   17.5581  -13.3139 C   0  0  0  0  0  0
  -22.1954   17.8110  -14.6591 C   0  0  0  0  0  0
  -23.0614   17.3835  -15.6673 C   0  0  0  0  0  0
  -24.2164   16.6773  -15.3397 C   0  0  0  0  0  0
  -24.4991   16.3863  -14.0061 C   0  0  0  0  0  0
  -23.6376   16.8223  -12.9962 C   0  0  0  0  0  0
  -19.1713   18.4151  -13.5931 C   0  0  0  0  0  0
  -18.8835   17.2397  -13.4360 O   0  0  0  0  0  0
  -18.5729   19.3678  -14.3779 N   0  0  0  0  0  0
  -19.1993   20.5697  -14.1671 C   0  0  0  0  0  0
  -18.9467   21.6733  -14.6293 O   0  0  0  0  0  0
  -17.4870   19.1392  -15.2842 C   0  0  0  0  0  0
  -17.0820   17.8396  -15.6411 C   0  0  0  0  0  0
  -16.0421   17.5998  -16.5625 C   0  0  0  0  0  0
  -15.3823   18.6876  -17.1404 C   0  0  0  0  0  0
  -15.7567   19.9815  -16.8036 C   0  0  0  0  0  0
  -16.7941   20.2009  -15.8895 C   0  0  0  0  0  0
  -15.6421   16.1929  -16.9375 C   0  0  0  0  0  0
  -16.3892   15.2279  -16.3346 F   0  0  0  0  0  0
  -15.7520   15.9648  -18.2763 F   0  0  0  0  0  0
  -14.3475   15.9182  -16.6173 F   0  0  0  0  0  0
  -22.3118   21.1443  -11.9950 C   0  0  0  0  0  0
  -22.0926   20.7634  -10.6586 C   0  0  0  0  0  0
  -23.1497   20.5703   -9.7584 C   0  0  0  0  0  0
  -24.4628   20.7543  -10.1710 C   0  0  0  0  0  0
  -24.7161   21.1432  -11.4795 C   0  0  0  0  0  0
  -23.6549   21.3440  -12.3718 C   0  0  0  0  0  0
  1  2  1  0  0  0
  2  3  1  0  0  0
  3  4  1  0  0  0
  3 28  1  0  0  0
  4  5  2  0  0  0
  4 16  1  0  0  0
  5  6  1  0  0  0
  5 13  1  0  0  0
  6  7  1  0  0  0
  7  8  2  0  0  0
  7 12  1  0  0  0
  8  9  1  0  0  0
  9 10  2  0  0  0
 10 11  1  0  0  0
 11 12  2  0  0  0
 13 14  2  0  0  0
 13 15  1  0  0  0
 15 16  1  0  0  0
 15 18  1  0  0  0
 16 17  2  0  0  0
 18 19  2  0  0  0
 18 23  1  0  0  0
 19 20  1  0  0  0
 20 21  2  0  0  0
 20 24  1  0  0  0
 21 22  1  0  0  0
 22 23  2  0  0  0
 24 25  1  0  0  0
 24 26  1  0  0  0
 24 27  1  0  0  0
 28 29  2  0  0  0
 28 33  1  0  0  0
 29 30  1  0  0  0
 30 31  2  0  0  0
 31 32  1  0  0  0
 32 33  2  0  0  0
M  END
>  <CHROM.0>
-63.44320813,-170.27148969,111.31634631,64.79163089,168.03066402,178.65082496
-157.06574827,-168.75899965

>  <CHROM.1>
-114.26594966,178.59791713,-110.73005481,94.02434383,4.09904857,12.02445637
1.42186403,-19.91912619,18.90008874,-14.09792437,-2.60447874,-0.42238926
-2.75214333

>  <Name>
F3285-1784

>  <RI>
2.74661e+07

>  <Rbt.Current_Directory>
/home/adria/Escritorio/rDock_CMTR_LC/2pxcA_model/inputs_sah

>  <Rbt.Executable>
rbdock ($Id: //depot/dev/client3/rdock/2013.1/src/exe/rbdock.cxx#4 $)

>  <Rbt.Library>
libRbt.so (2013.1, Build901 2013/11/27)

>  <Rbt.Parameter_File>
/home/adria/Escritorio/rDock_2013.1_src/data/scripts/dock.prm

>  <Rbt.Receptor>
sah_rdock.prm

>  <SCORE>
-54.6844

>  <SCORE.INTER>
-13.4314

>  <SCORE.INTER.CONST>
1

>  <SCORE.INTER.POLAR>
-0.685496

>  <SCORE.INTER.REPUL>
0

>  <SCORE.INTER.ROT>
7

>  <SCORE.INTER.VDW>
-23.5007

>  <SCORE.INTER.norm>
-0.407012

>  <SCORE.INTRA>
-39.8398

>  <SCORE.INTRA.DIHEDRAL>
-85.2686

>  <SCORE.INTRA.DIHEDRAL.0>
106.227

>  <SCORE.INTRA.POLAR>
0

>  <SCORE.INTRA.POLAR.0>
0

>  <SCORE.INTRA.REPUL>
0

>  <SCORE.INTRA.REPUL.0>
0

>  <SCORE.INTRA.VDW>
2.79449

>  <SCORE.INTRA.VDW.0>
-3.6965

>  <SCORE.INTRA.norm>
-1.20727

>  <SCORE.RESTR>
0.0136534

>  <SCORE.RESTR.CAVITY>
0.0136534

>  <SCORE.RESTR.norm>
0.000413738

>  <SCORE.SYSTEM>
-1.42686

>  <SCORE.SYSTEM.CONST>
0

>  <SCORE.SYSTEM.DIHEDRAL>
6.06525

>  <SCORE.SYSTEM.POLAR>
-4.23657

>  <SCORE.SYSTEM.VDW>
9.94486

>  <SCORE.SYSTEM.norm>
-0.0432381

>  <SCORE.heavy>
33

>  <SCORE.norm>
-1.6571

$$$$
F3285-1784
  rDOCK(R)          3D
libRbt.so/2013.1/901 2013/11/27
 33 36  0  0  0  0  0  0  0  0999 V2000
  -22.1550   24.8861  -12.7609 C   0  0  0  0  0  0
  -21.1066   23.8342  -12.4260 C   0  0  0  0  0  0
  -21.7084   22.6273  -11.8248 N   0  0  0  0  0  0
  -21.0881   21.4012  -12.0377 C   0  0  0  0  0  0
  -21.3035   20.2042  -11.4936 C   0  0  0  0  0  0
  -22.4347   19.7623  -10.2890 S   0  0  0  0  0  0
  -23.5002   18.7190  -11.2740 C   0  0  0  0  0  0
  -24.6088   19.2354  -11.9562 C   0  0  0  0  0  0
  -25.4580   18.3888  -12.6712 C   0  0  0  0  0  0
  -25.1905   17.0232  -12.7312 C   0  0  0  0  0  0
  -24.0671   16.5056  -12.0882 C   0  0  0  0  0  0
  -23.2225   17.3510  -11.3646 C   0  0  0  0  0  0
  -20.4258   19.2152  -12.1469 C   0  0  0  0  0  0
  -20.3721   18.0475  -11.7968 O   0  0  0  0  0  0
  -19.7651   19.8580  -13.1627 N   0  0  0  0  0  0
  -20.0848   21.1913  -13.1223 C   0  0  0  0  0  0
  -19.6777   22.1130  -13.8151 O   0  0  0  0  0  0
  -18.9010   19.2348  -14.1206 C   0  0  0  0  0  0
  -17.8606   19.9432  -14.7500 C   0  0  0  0  0  0
  -16.9773   19.3329  -15.6639 C   0  0  0  0  0  0
  -17.1398   17.9778  -15.9639 C   0  0  0  0  0  0
  -18.1606   17.2542  -15.3622 C   0  0  0  0  0  0
  -19.0261   17.8758  -14.4543 C   0  0  0  0  0  0
  -15.8601   20.1168  -16.3099 C   0  0  0  0  0  0
  -14.6911   20.0874  -15.6131 F   0  0  0  0  0  0
  -15.5606   19.6561  -17.5566 F   0  0  0  0  0  0
  -16.1709   21.4335  -16.4636 F   0  0  0  0  0  0
  -22.7640   22.7890  -10.8897 C   0  0  0  0  0  0
  -23.9908   22.1120  -11.0150 C   0  0  0  0  0  0
  -25.0250   22.2703  -10.0822 C   0  0  0  0  0  0
  -24.8609   23.1140   -8.9916 C   0  0  0  0  0  0
  -23.6582   23.7883   -8.8287 C   0  0  0  0  0  0
  -22.6247   23.6185   -9.7592 C   0  0  0  0  0  0
  1  2  1  0  0  0
  2  3  1  0  0  0
  3  4  1  0  0  0
  3 28  1  0  0  0
  4  5  2  0  0  0
  4 16  1  0  0  0
  5  6  1  0  0  0
  5 13  1  0  0  0
  6  7  1  0  0  0
  7  8  2  0  0  0
  7 12  1  0  0  0
  8  9  1  0  0  0
  9 10  2  0  0  0
 10 11  1  0  0  0
 11 12  2  0  0  0
 13 14  2  0  0  0
 13 15  1  0  0  0
 15 16  1  0  0  0
 15 18  1  0  0  0
 16 17  2  0  0  0
 18 19  2  0  0  0
 18 23  1  0  0  0
 19 20  1  0  0  0
 20 21  2  0  0  0
 20 24  1  0  0  0
 21 22  1  0  0  0
 22 23  2  0  0  0
 24 25  1  0  0  0
 24 26  1  0  0  0
 24 27  1  0  0  0
 28 29  2  0  0  0
 28 33  1  0  0  0
 29 30  1  0  0  0
 30 31  2  0  0  0
 31 32  1  0  0  0
 32 33  2  0  0  0
M  END
>  <CHROM.0>
-62.26853020,65.32113741,-44.37691075,69.35492968,-30.92031230,-177.37204377
-36.30745858,-164.24421982

>  <CHROM.1>
149.79197071,170.41496189,127.98857563,112.73392881,-90.19355685,-153.15501914
90.47234808,-20.75693759,20.34094484,-12.84584057,-2.83486698,-0.57117978
-2.88870164

>  <Name>
F3285-1784

>  <RI>
2.74661e+07

>  <Rbt.Current_Directory>
/home/adria/Escritorio/rDock_CMTR_LC/2pxcA_model/inputs_sah

>  <Rbt.Executable>
rbdock ($Id: //depot/dev/client3/rdock/2013.1/src/exe/rbdock.cxx#4 $)

>  <Rbt.Library>
libRbt.so (2013.1, Build901 2013/11/27)

>  <Rbt.Parameter_File>
/home/adria/Escritorio/rDock_2013.1_src/data/scripts/dock.prm

>  <Rbt.Receptor>
sah_rdock.prm

>  <SCORE>
-55.1386

>  <SCORE.INTER>
-10.4554

>  <SCORE.INTER.CONST>
1

>  <SCORE.INTER.POLAR>
-0.331417

>  <SCORE.INTER.REPUL>
0

>  <SCORE.INTER.ROT>
7

>  <SCORE.INTER.VDW>
-21.7286

>  <SCORE.INTER.norm>
-0.316831

>  <SCORE.INTRA>
-37.6763

>  <SCORE.INTRA.DIHEDRAL>
-82.4193

>  <SCORE.INTRA.DIHEDRAL.0>
106.227

>  <SCORE.INTRA.POLAR>
0

>  <SCORE.INTRA.POLAR.0>
0

>  <SCORE.INTRA.REPUL>
0

>  <SCORE.INTRA.REPUL.0>
0

>  <SCORE.INTRA.VDW>
3.53337

>  <SCORE.INTRA.VDW.0>
-3.6965

>  <SCORE.INTRA.norm>
-1.14171

>  <SCORE.RESTR>
0.0816203

>  <SCORE.RESTR.CAVITY>
0.0816203

>  <SCORE.RESTR.norm>
0.00247334

>  <SCORE.SYSTEM>
-7.08854

>  <SCORE.SYSTEM.CONST>
0

>  <SCORE.SYSTEM.DIHEDRAL>
6.17082

>  <SCORE.SYSTEM.POLAR>
-3.70621

>  <SCORE.SYSTEM.VDW>
2.42717

>  <SCORE.SYSTEM.norm>
-0.214804

>  <SCORE.heavy>
33

>  <SCORE.norm>
-1.67087

$$$$
F3285-1784
  rDOCK(R)          3D
libRbt.so/2013.1/901 2013/11/27
 33 36  0  0  0  0  0  0  0  0999 V2000
  -21.3203   25.5663  -10.7203 C   0  0  0  0  0  0
  -22.2646   24.8452  -11.6723 C   0  0  0  0  0  0
  -22.7015   23.5416  -11.1338 N   0  0  0  0  0  0
  -21.9941   22.4022  -11.5012 C   0  0  0  0  0  0
  -22.0931   21.1389  -11.0897 C   0  0  0  0  0  0
  -23.1396   20.4746   -9.9109 S   0  0  0  0  0  0
  -24.6952   20.6887  -10.7643 C   0  0  0  0  0  0
  -25.9219   20.5478  -10.1036 C   0  0  0  0  0  0
  -27.1225   20.6631  -10.8068 C   0  0  0  0  0  0
  -27.1061   20.9460  -12.1705 C   0  0  0  0  0  0
  -25.8907   21.1271  -12.8288 C   0  0  0  0  0  0
  -24.6889   21.0023  -12.1275 C   0  0  0  0  0  0
  -21.1648   20.3043  -11.8751 C   0  0  0  0  0  0
  -21.0053   19.1137  -11.6605 O   0  0  0  0  0  0
  -20.5959   21.1077  -12.8303 N   0  0  0  0  0  0
  -21.0188   22.3972  -12.6307 C   0  0  0  0  0  0
  -20.7125   23.4202  -13.2264 O   0  0  0  0  0  0
  -19.7216   20.6677  -13.8766 C   0  0  0  0  0  0
  -19.5104   19.3014  -14.1390 C   0  0  0  0  0  0
  -18.6849   18.8539  -15.1907 C   0  0  0  0  0  0
  -18.0461   19.7963  -16.0009 C   0  0  0  0  0  0
  -18.2315   21.1516  -15.7629 C   0  0  0  0  0  0
  -19.0578   21.5778  -14.7162 C   0  0  0  0  0  0
  -18.4918   17.3802  -15.4569 C   0  0  0  0  0  0
  -19.0007   16.5730  -14.4861 F   0  0  0  0  0  0
  -19.0848   16.9836  -16.6177 F   0  0  0  0  0  0
  -17.1783   17.0414  -15.5744 F   0  0  0  0  0  0
  -23.6828   23.5252  -10.1084 C   0  0  0  0  0  0
  -23.3756   23.1861   -8.7781 C   0  0  0  0  0  0
  -24.3488   23.1810   -7.7693 C   0  0  0  0  0  0
  -25.6636   23.5171   -8.0635 C   0  0  0  0  0  0
  -26.0005   23.8700   -9.3633 C   0  0  0  0  0  0
  -25.0214   23.8826  -10.3653 C   0  0  0  0  0  0
  1  2  1  0  0  0
  2  3  1  0  0  0
  3  4  1  0  0  0
  3 28  1  0  0  0
  4  5  2  0  0  0
  4 16  1  0  0  0
  5  6  1  0  0  0
  5 13  1  0  0  0
  6  7  1  0  0  0
  7  8  2  0  0  0
  7 12  1  0  0  0
  8  9  1  0  0  0
  9 10  2  0  0  0
 10 11  1  0  0  0
 11 12  2  0  0  0
 13 14  2  0  0  0
 13 15  1  0  0  0
 15 16  1  0  0  0
 15 18  1  0  0  0
 16 17  2  0  0  0
 18 19  2  0  0  0
 18 23  1  0  0  0
 19 20  1  0  0  0
 20 21  2  0  0  0
 20 24  1  0  0  0
 21 22  1  0  0  0
 22 23  2  0  0  0
 24 25  1  0  0  0
 24 26  1  0  0  0
 24 27  1  0  0  0
 28 29  2  0  0  0
 28 33  1  0  0  0
 29 30  1  0  0  0
 30 31  2  0  0  0
 31 32  1  0  0  0
 32 33  2  0  0  0
M  END
>  <CHROM.0>
177.81638207,-74.80440002,75.62577540,60.60597522,-29.65325867,61.98001666
83.80681777,-165.51067515

>  <CHROM.1>
-94.19790367,173.73207810,-108.64209806,67.48793564,-166.62263192,9.37351141
-9.70170482,-21.97530472,21.04910662,-12.24453206,-2.44054773,-0.49858650
-2.77116722

>  <Name>
F3285-1784

>  <RI>
2.74661e+07

>  <Rbt.Current_Directory>
/home/adria/Escritorio/rDock_CMTR_LC/2pxcA_model/inputs_sah

>  <Rbt.Executable>
rbdock ($Id: //depot/dev/client3/rdock/2013.1/src/exe/rbdock.cxx#4 $)

>  <Rbt.Library>
libRbt.so (2013.1, Build901 2013/11/27)

>  <Rbt.Parameter_File>
/home/adria/Escritorio/rDock_2013.1_src/data/scripts/dock.prm

>  <Rbt.Receptor>
sah_rdock.prm

>  <SCORE>
-58.3066

>  <SCORE.INTER>
-10.0041

>  <SCORE.INTER.CONST>
1

>  <SCORE.INTER.POLAR>
0

>  <SCORE.INTER.REPUL>
0.060812

>  <SCORE.INTER.ROT>
7

>  <SCORE.INTER.VDW>
-22.7081

>  <SCORE.INTER.norm>
-0.303154

>  <SCORE.INTRA>
-41.0132

>  <SCORE.INTRA.DIHEDRAL>
-84.3915

>  <SCORE.INTRA.DIHEDRAL.0>
106.227

>  <SCORE.INTRA.POLAR>
0

>  <SCORE.INTRA.POLAR.0>
0

>  <SCORE.INTRA.REPUL>
0

>  <SCORE.INTRA.REPUL.0>
0

>  <SCORE.INTRA.VDW>
1.18256

>  <SCORE.INTRA.VDW.0>
-3.6965

>  <SCORE.INTRA.norm>
-1.24282

>  <SCORE.RESTR>
0

>  <SCORE.RESTR.CAVITY>
0

>  <SCORE.RESTR.norm>
0

>  <SCORE.SYSTEM>
-7.28933

>  <SCORE.SYSTEM.CONST>
0

>  <SCORE.SYSTEM.DIHEDRAL>
6.82539

>  <SCORE.SYSTEM.POLAR>
-4.07279

>  <SCORE.SYSTEM.REPUL>
0.0415973

>  <SCORE.SYSTEM.VDW>
2.93746

>  <SCORE.SYSTEM.norm>
-0.220889

>  <SCORE.heavy>
33

>  <SCORE.norm>
-1.76687

$$$$
F3285-1784
  rDOCK(R)          3D
libRbt.so/2013.1/901 2013/11/27
 33 36  0  0  0  0  0  0  0  0999 V2000
  -16.5223   20.3378  -16.3126 C   0  0  0  0  0  0
  -18.0218   20.5825  -16.2161 C   0  0  0  0  0  0
  -18.7130   19.4946  -15.4957 N   0  0  0  0  0  0
  -19.6552   19.8328  -14.5306 C   0  0  0  0  0  0
  -20.4187   19.0723  -13.7472 C   0  0  0  0  0  0
  -20.5218   17.3661  -13.6813 S   0  0  0  0  0  0
  -22.2349   17.1703  -14.1515 C   0  0  0  0  0  0
  -22.6802   17.4637  -15.4464 C   0  0  0  0  0  0
  -24.0340   17.3574  -15.7709 C   0  0  0  0  0  0
  -24.9487   16.9319  -14.8106 C   0  0  0  0  0  0
  -24.5091   16.5996  -13.5302 C   0  0  0  0  0  0
  -23.1559   16.7151  -13.2022 C   0  0  0  0  0  0
  -21.1787   19.9407  -12.8288 C   0  0  0  0  0  0
  -22.0060   19.5070  -12.0435 O   0  0  0  0  0  0
  -20.7541   21.2289  -13.0337 N   0  0  0  0  0  0
  -19.8677   21.2397  -14.0805 C   0  0  0  0  0  0
  -19.2979   22.1825  -14.6111 O   0  0  0  0  0  0
  -21.1546   22.3705  -12.2663 C   0  0  0  0  0  0
  -22.1501   22.2840  -11.2754 C   0  0  0  0  0  0
  -22.5258   23.3893  -10.4848 C   0  0  0  0  0  0
  -21.8949   24.6187  -10.6924 C   0  0  0  0  0  0
  -20.9124   24.7357  -11.6665 C   0  0  0  0  0  0
  -20.5495   23.6265  -12.4398 C   0  0  0  0  0  0
  -23.5863   23.2598   -9.4178 C   0  0  0  0  0  0
  -23.1457   23.5537   -8.1638 F   0  0  0  0  0  0
  -24.6467   24.0854   -9.6414 F   0  0  0  0  0  0
  -24.1016   22.0014   -9.3477 F   0  0  0  0  0  0
  -18.5468   18.1625  -15.9567 C   0  0  0  0  0  0
  -19.5514   17.4812  -16.6678 C   0  0  0  0  0  0
  -19.3760   16.1686  -17.1275 C   0  0  0  0  0  0
  -18.1845   15.4967  -16.8884 C   0  0  0  0  0  0
  -17.1658   16.1428  -16.2011 C   0  0  0  0  0  0
  -17.3435   17.4581  -15.7526 C   0  0  0  0  0  0
  1  2  1  0  0  0
  2  3  1  0  0  0
  3  4  1  0  0  0
  3 28  1  0  0  0
  4  5  2  0  0  0
  4 16  1  0  0  0
  5  6  1  0  0  0
  5 13  1  0  0  0
  6  7  1  0  0  0
  7  8  2  0  0  0
  7 12  1  0  0  0
  8  9  1  0  0  0
  9 10  2  0  0  0
 10 11  1  0  0  0
 11 12  2  0  0  0
 13 14  2  0  0  0
 13 15  1  0  0  0
 15 16  1  0  0  0
 15 18  1  0  0  0
 16 17  2  0  0  0
 18 19  2  0  0  0
 18 23  1  0  0  0
 19 20  1  0  0  0
 20 21  2  0  0  0
 20 24  1  0  0  0
 21 22  1  0  0  0
 22 23  2  0  0  0
 24 25  1  0  0  0
 24 26  1  0  0  0
 24 27  1  0  0  0
 28 29  2  0  0  0
 28 33  1  0  0  0
 29 30  1  0  0  0
 30 31  2  0  0  0
 31 32  1  0  0  0
 32 33  2  0  0  0
M  END
>  <CHROM.0>
-178.89551096,-73.70169787,74.80785244,62.22286328,-31.81533084,179.68577044
83.52674368,-52.17363058

>  <CHROM.1>
134.58168096,179.67295360,-104.73187909,-117.78624928,68.51564320,-6.13085803
119.90929354,-21.06815034,19.96188668,-13.41980457,-1.09145818,0.49819367
0.52950309

>  <Name>
F3285-1784

>  <RI>
2.74661e+07

>  <Rbt.Current_Directory>
/home/adria/Escritorio/rDock_CMTR_LC/2pxcA_model/inputs_sah

>  <Rbt.Executable>
rbdock ($Id: //depot/dev/client3/rdock/2013.1/src/exe/rbdock.cxx#4 $)

>  <Rbt.Library>
libRbt.so (2013.1, Build901 2013/11/27)

>  <Rbt.Parameter_File>
/home/adria/Escritorio/rDock_2013.1_src/data/scripts/dock.prm

>  <Rbt.Receptor>
sah_rdock.prm

>  <SCORE>
-53.6522

>  <SCORE.INTER>
-8.65844

>  <SCORE.INTER.CONST>
1

>  <SCORE.INTER.POLAR>
0

>  <SCORE.INTER.REPUL>
0

>  <SCORE.INTER.ROT>
7

>  <SCORE.INTER.VDW>
-21.0584

>  <SCORE.INTER.norm>
-0.262377

>  <SCORE.INTRA>
-39.7843

>  <SCORE.INTRA.DIHEDRAL>
-85.1211

>  <SCORE.INTRA.DIHEDRAL.0>
106.227

>  <SCORE.INTRA.POLAR>
0

>  <SCORE.INTRA.POLAR.0>
0

>  <SCORE.INTRA.REPUL>
0

>  <SCORE.INTRA.REPUL.0>
0

>  <SCORE.INTRA.VDW>
2.77624

>  <SCORE.INTRA.VDW.0>
-3.6965

>  <SCORE.INTRA.norm>
-1.20559

>  <SCORE.RESTR>
0

>  <SCORE.RESTR.CAVITY>
0

>  <SCORE.RESTR.norm>
0

>  <SCORE.SYSTEM>
-5.20945

>  <SCORE.SYSTEM.CONST>
0

>  <SCORE.SYSTEM.DIHEDRAL>
8.8849

>  <SCORE.SYSTEM.POLAR>
-3.68293

>  <SCORE.SYSTEM.REPUL>
0.0459656

>  <SCORE.SYSTEM.VDW>
2.64025

>  <SCORE.SYSTEM.norm>
-0.157862

>  <SCORE.heavy>
33

>  <SCORE.norm>
-1.62582

$$$$
F3285-1784
  rDOCK(R)          3D
libRbt.so/2013.1/901 2013/11/27
 33 36  0  0  0  0  0  0  0  0999 V2000
  -15.0632   19.4072  -17.2656 C   0  0  0  0  0  0
  -15.4929   18.5560  -16.0788 C   0  0  0  0  0  0
  -16.4031   17.4657  -16.4825 N   0  0  0  0  0  0
  -17.7697   17.6389  -16.2932 C   0  0  0  0  0  0
  -18.8096   16.9123  -16.7003 C   0  0  0  0  0  0
  -18.8168   15.4887  -17.6486 S   0  0  0  0  0  0
  -18.6208   14.2822  -16.3448 C   0  0  0  0  0  0
  -18.6467   12.9066  -16.6059 C   0  0  0  0  0  0
  -18.5493   11.9854  -15.5612 C   0  0  0  0  0  0
  -18.3991   12.4324  -14.2507 C   0  0  0  0  0  0
  -18.3324   13.7993  -13.9853 C   0  0  0  0  0  0
  -18.4394   14.7216  -15.0293 C   0  0  0  0  0  0
  -20.0465   17.4899  -16.1420 C   0  0  0  0  0  0
  -21.1558   17.0571  -16.4088 O   0  0  0  0  0  0
  -19.6824   18.5180  -15.3102 N   0  0  0  0  0  0
  -18.3241   18.6910  -15.3916 C   0  0  0  0  0  0
  -17.6095   19.5240  -14.8524 O   0  0  0  0  0  0
  -20.5721   19.2717  -14.4777 C   0  0  0  0  0  0
  -20.1620   20.4562  -13.8381 C   0  0  0  0  0  0
  -21.0378   21.2297  -13.0491 C   0  0  0  0  0  0
  -22.3598   20.8065  -12.8878 C   0  0  0  0  0  0
  -22.7918   19.6390  -13.5027 C   0  0  0  0  0  0
  -21.9092   18.8854  -14.2856 C   0  0  0  0  0  0
  -20.5715   22.5053  -12.3893 C   0  0  0  0  0  0
  -20.0267   23.4056  -13.2528 F   0  0  0  0  0  0
  -21.5864   23.1617  -11.7604 F   0  0  0  0  0  0
  -19.6251   22.2812  -11.4363 F   0  0  0  0  0  0
  -15.8744   16.3831  -17.2330 C   0  0  0  0  0  0
  -15.7812   15.0800  -16.7111 C   0  0  0  0  0  0
  -15.2661   14.0143  -17.4619 C   0  0  0  0  0  0
  -14.8278   14.2223  -18.7630 C   0  0  0  0  0  0
  -14.9170   15.4929  -19.3155 C   0  0  0  0  0  0
  -15.4417   16.5520  -18.5633 C   0  0  0  0  0  0
  1  2  1  0  0  0
  2  3  1  0  0  0
  3  4  1  0  0  0
  3 28  1  0  0  0
  4  5  2  0  0  0
  4 16  1  0  0  0
  5  6  1  0  0  0
  5 13  1  0  0  0
  6  7  1  0  0  0
  7  8  2  0  0  0
  7 12  1  0  0  0
  8  9  1  0  0  0
  9 10  2  0  0  0
 10 11  1  0  0  0
 11 12  2  0  0  0
 13 14  2  0  0  0
 13 15  1  0  0  0
 15 16  1  0  0  0
 15 18  1  0  0  0
 16 17  2  0  0  0
 18 19  2  0  0  0
 18 23  1  0  0  0
 19 20  1  0  0  0
 20 21  2  0  0  0
 20 24  1  0  0  0
 21 22  1  0  0  0
 22 23  2  0  0  0
 24 25  1  0  0  0
 24 26  1  0  0  0
 24 27  1  0  0  0
 28 29  2  0  0  0
 28 33  1  0  0  0
 29 30  1  0  0  0
 30 31  2  0  0  0
 31 32  1  0  0  0
 32 33  2  0  0  0
M  END
>  <CHROM.0>
-177.32843695,-74.35276893,-165.52644678,62.73989130,-30.86216648,172.20927659
83.33945852,-163.99415443

>  <CHROM.1>
-99.58835282,170.90083761,112.65982772,87.12306906,176.08439591,-168.50429284
54.93086343,-18.63015076,17.71144668,-15.41269245,-1.03151524,0.53682481
0.24562832

>  <Name>
F3285-1784

>  <RI>
2.74661e+07

>  <Rbt.Current_Directory>
/home/adria/Escritorio/rDock_CMTR_LC/2pxcA_model/inputs_sah

>  <Rbt.Executable>
rbdock ($Id: //depot/dev/client3/rdock/2013.1/src/exe/rbdock.cxx#4 $)

>  <Rbt.Library>
libRbt.so (2013.1, Build901 2013/11/27)

>  <Rbt.Parameter_File>
/home/adria/Escritorio/rDock_2013.1_src/data/scripts/dock.prm

>  <Rbt.Receptor>
sah_rdock.prm

>  <SCORE>
-56.2401

>  <SCORE.INTER>
-10.4811

>  <SCORE.INTER.CONST>
1

>  <SCORE.INTER.POLAR>
0

>  <SCORE.INTER.REPUL>
0.00307957

>  <SCORE.INTER.ROT>
7

>  <SCORE.INTER.VDW>
-22.8965

>  <SCORE.INTER.norm>
-0.317608

>  <SCORE.INTRA>
-38.8593

>  <SCORE.INTRA.DIHEDRAL>
-81.6866

>  <SCORE.INTRA.DIHEDRAL.0>
106.227

>  <SCORE.INTRA.POLAR>
0

>  <SCORE.INTRA.POLAR.0>
0

>  <SCORE.INTRA.REPUL>
0

>  <SCORE.INTRA.REPUL.0>
0

>  <SCORE.INTRA.VDW>
1.98396

>  <SCORE.INTRA.VDW.0>
-3.6965

>  <SCORE.INTRA.norm>
-1.17756

>  <SCORE.RESTR>
0

>  <SCORE.RESTR.CAVITY>
0

>  <SCORE.RESTR.norm>
0

>  <SCORE.SYSTEM>
-6.89971

>  <SCORE.SYSTEM.CONST>
0

>  <SCORE.SYSTEM.DIHEDRAL>
6.66913

>  <SCORE.SYSTEM.POLAR>
-3.95511

>  <SCORE.SYSTEM.REPUL>
0.0408613

>  <SCORE.SYSTEM.VDW>
3.0088

>  <SCORE.SYSTEM.norm>
-0.209082

>  <SCORE.heavy>
33

>  <SCORE.norm>
-1.70425

$$$$
F3285-1784
  rDOCK(R)          3D
libRbt.so/2013.1/901 2013/11/27
 33 36  0  0  0  0  0  0  0  0999 V2000
  -23.9418   15.9156  -12.9891 C   0  0  0  0  0  0
  -23.8137   17.3181  -13.5675 C   0  0  0  0  0  0
  -23.1496   18.2437  -12.6282 N   0  0  0  0  0  0
  -21.8831   18.7189  -12.9501 C   0  0  0  0  0  0
  -21.0891   19.5886  -12.3270 C   0  0  0  0  0  0
  -21.3806   20.4648  -10.8870 S   0  0  0  0  0  0
  -21.5059   22.1078  -11.5790 C   0  0  0  0  0  0
  -22.5251   22.4525  -12.4753 C   0  0  0  0  0  0
  -22.5659   23.7262  -13.0458 C   0  0  0  0  0  0
  -21.6032   24.6730  -12.7044 C   0  0  0  0  0  0
  -20.6077   24.3518  -11.7830 C   0  0  0  0  0  0
  -20.5609   23.0744  -11.2192 C   0  0  0  0  0  0
  -19.8044   19.6669  -13.0471 C   0  0  0  0  0  0
  -18.9145   20.4381  -12.7272 O   0  0  0  0  0  0
  -19.8384   18.7348  -14.0530 N   0  0  0  0  0  0
  -21.0833   18.1594  -14.0790 C   0  0  0  0  0  0
  -21.5414   17.3244  -14.8459 O   0  0  0  0  0  0
  -18.7462   18.4027  -14.9188 C   0  0  0  0  0  0
  -18.7711   17.2567  -15.7352 C   0  0  0  0  0  0
  -17.7218   16.9391  -16.6217 C   0  0  0  0  0  0
  -16.6122   17.7855  -16.6919 C   0  0  0  0  0  0
  -16.5573   18.9209  -15.8947 C   0  0  0  0  0  0
  -17.6102   19.2227  -15.0228 C   0  0  0  0  0  0
  -17.7861   15.7104  -17.4970 C   0  0  0  0  0  0
  -17.4388   15.9379  -18.7933 F   0  0  0  0  0  0
  -16.9578   14.7212  -17.0592 F   0  0  0  0  0  0
  -19.0326   15.1638  -17.5342 F   0  0  0  0  0  0
  -23.9046   18.7731  -11.5491 C   0  0  0  0  0  0
  -24.4406   20.0736  -11.5721 C   0  0  0  0  0  0
  -25.1929   20.5858  -10.5059 C   0  0  0  0  0  0
  -25.4322   19.8078   -9.3808 C   0  0  0  0  0  0
  -24.9298   18.5146   -9.3291 C   0  0  0  0  0  0
  -24.1868   18.0049  -10.4019 C   0  0  0  0  0  0
  1  2  1  0  0  0
  2  3  1  0  0  0
  3  4  1  0  0  0
  3 28  1  0  0  0
  4  5  2  0  0  0
  4 16  1  0  0  0
  5  6  1  0  0  0
  5 13  1  0  0  0
  6  7  1  0  0  0
  7  8  2  0  0  0
  7 12  1  0  0  0
  8  9  1  0  0  0
  9 10  2  0  0  0
 10 11  1  0  0  0
 11 12  2  0  0  0
 13 14  2  0  0  0
 13 15  1  0  0  0
 15 16  1  0  0  0
 15 18  1  0  0  0
 16 17  2  0  0  0
 18 19  2  0  0  0
 18 23  1  0  0  0
 19 20  1  0  0  0
 20 21  2  0  0  0
 20 24  1  0  0  0
 21 22  1  0  0  0
 22 23  2  0  0  0
 24 25  1  0  0  0
 24 26  1  0  0  0
 24 27  1  0  0  0
 28 29  2  0  0  0
 28 33  1  0  0  0
 29 30  1  0  0  0
 30 31  2  0  0  0
 31 32  1  0  0  0
 32 33  2  0  0  0
M  END
>  <CHROM.0>
-178.74136518,-167.83361847,73.43553889,62.25453377,168.13822220,59.67048443
-36.37325918,-162.00884748

>  <CHROM.1>
111.68626219,176.97455774,-101.02759731,-111.24257589,63.80068426,166.68417346
133.79158591,-20.86410179,19.00767118,-13.55022910,2.36360841,0.58410340
0.40689054

>  <Name>
F3285-1784

>  <RI>
2.74661e+07

>  <Rbt.Current_Directory>
/home/adria/Escritorio/rDock_CMTR_LC/2pxcA_model/inputs_sah

>  <Rbt.Executable>
rbdock ($Id: //depot/dev/client3/rdock/2013.1/src/exe/rbdock.cxx#4 $)

>  <Rbt.Library>
libRbt.so (2013.1, Build901 2013/11/27)

>  <Rbt.Parameter_File>
/home/adria/Escritorio/rDock_2013.1_src/data/scripts/dock.prm

>  <Rbt.Receptor>
sah_rdock.prm

>  <SCORE>
-49.9788

>  <SCORE.INTER>
-7.93548

>  <SCORE.INTER.CONST>
1

>  <SCORE.INTER.POLAR>
0

>  <SCORE.INTER.REPUL>
0

>  <SCORE.INTER.ROT>
7

>  <SCORE.INTER.VDW>
-20.3355

>  <SCORE.INTER.norm>
-0.240469

>  <SCORE.INTRA>
-40.7349

>  <SCORE.INTRA.DIHEDRAL>
-84.381

>  <SCORE.INTRA.DIHEDRAL.0>
106.227

>  <SCORE.INTRA.POLAR>
0

>  <SCORE.INTRA.POLAR.0>
0

>  <SCORE.INTRA.REPUL>
0

>  <SCORE.INTRA.REPUL.0>
0

>  <SCORE.INTRA.VDW>
1.45554

>  <SCORE.INTRA.VDW.0>
-3.6965

>  <SCORE.INTRA.norm>
-1.23439

>  <SCORE.RESTR>
0

>  <SCORE.RESTR.CAVITY>
0

>  <SCORE.RESTR.norm>
0

>  <SCORE.SYSTEM>
-1.30838

>  <SCORE.SYSTEM.CONST>
0

>  <SCORE.SYSTEM.DIHEDRAL>
3.50737

>  <SCORE.SYSTEM.POLAR>
-3.6601

>  <SCORE.SYSTEM.VDW>
9.38227

>  <SCORE.SYSTEM.norm>
-0.0396479

>  <SCORE.heavy>
33

>  <SCORE.norm>
-1.51451

$$$$
F3285-1784
  rDOCK(R)          3D
libRbt.so/2013.1/901 2013/11/27
 33 36  0  0  0  0  0  0  0  0999 V2000
  -20.5834   23.4653  -12.0876 C   0  0  0  0  0  0
  -21.1262   22.5506  -13.1769 C   0  0  0  0  0  0
  -21.3536   21.1781  -12.6823 N   0  0  0  0  0  0
  -20.5114   20.1652  -13.1275 C   0  0  0  0  0  0
  -20.4388   18.8770  -12.7954 C   0  0  0  0  0  0
  -21.3693   18.0112  -11.6506 S   0  0  0  0  0  0
  -22.7727   17.6046  -12.6797 C   0  0  0  0  0  0
  -22.6157   17.2009  -14.0114 C   0  0  0  0  0  0
  -23.7318   16.9452  -14.8104 C   0  0  0  0  0  0
  -25.0125   17.0659  -14.2764 C   0  0  0  0  0  0
  -25.1779   17.4287  -12.9407 C   0  0  0  0  0  0
  -24.0616   17.6941  -12.1435 C   0  0  0  0  0  0
  -19.4245   18.2199  -13.6408 C   0  0  0  0  0  0
  -19.1085   17.0493  -13.5031 O   0  0  0  0  0  0
  -18.9814   19.1475  -14.5490 N   0  0  0  0  0  0
  -19.5640   20.3563  -14.2645 C   0  0  0  0  0  0
  -19.4033   21.4450  -14.7976 O   0  0  0  0  0  0
  -18.0763   18.8899  -15.6294 C   0  0  0  0  0  0
  -16.8784   19.6130  -15.7796 C   0  0  0  0  0  0
  -15.9590   19.3432  -16.8139 C   0  0  0  0  0  0
  -16.2452   18.3269  -17.7292 C   0  0  0  0  0  0
  -17.4220   17.5998  -17.6092 C   0  0  0  0  0  0
  -18.3217   17.8790  -16.5736 C   0  0  0  0  0  0
  -14.6739   20.1261  -16.9381 C   0  0  0  0  0  0
  -14.7507   21.3937  -16.4479 F   0  0  0  0  0  0
  -13.6424   19.5334  -16.2740 F   0  0  0  0  0  0
  -14.2636   20.2492  -18.2306 F   0  0  0  0  0  0
  -22.2773   20.9830  -11.6224 C   0  0  0  0  0  0
  -23.6605   21.1833  -11.7830 C   0  0  0  0  0  0
  -24.5672   20.9796  -10.7336 C   0  0  0  0  0  0
  -24.1143   20.5673   -9.4873 C   0  0  0  0  0  0
  -22.7569   20.3470   -9.2961 C   0  0  0  0  0  0
  -21.8567   20.5429  -10.3515 C   0  0  0  0  0  0
  1  2  1  0  0  0
  2  3  1  0  0  0
  3  4  1  0  0  0
  3 28  1  0  0  0
  4  5  2  0  0  0
  4 16  1  0  0  0
  5  6  1  0  0  0
  5 13  1  0  0  0
  6  7  1  0  0  0
  7  8  2  0  0  0
  7 12  1  0  0  0
  8  9  1  0  0  0
  9 10  2  0  0  0
 10 11  1  0  0  0
 11 12  2  0  0  0
 13 14  2  0  0  0
 13 15  1  0  0  0
 15 16  1  0  0  0
 15 18  1  0  0  0
 16 17  2  0  0  0
 18 19  2  0  0  0
 18 23  1  0  0  0
 19 20  1  0  0  0
 20 21  2  0  0  0
 20 24  1  0  0  0
 21 22  1  0  0  0
 22 23  2  0  0  0
 24 25  1  0  0  0
 24 26  1  0  0  0
 24 27  1  0  0  0
 28 29  2  0  0  0
 28 33  1  0  0  0
 29 30  1  0  0  0
 30 31  2  0  0  0
 31 32  1  0  0  0
 32 33  2  0  0  0
M  END
>  <CHROM.0>
-178.05342326,65.94070734,-44.46256010,-61.91929356,167.97763648,-179.87756314
-156.27461357,-167.92192784

>  <CHROM.1>
-109.54119368,175.72732897,68.24606400,85.17588219,41.03835408,-124.02344032
-28.48190197,-19.97472602,19.45612855,-13.90678840,-2.86735994,-0.51887680
-2.57362058

>  <Name>
F3285-1784

>  <RI>
2.74661e+07

>  <Rbt.Current_Directory>
/home/adria/Escritorio/rDock_CMTR_LC/2pxcA_model/inputs_sah

>  <Rbt.Executable>
rbdock ($Id: //depot/dev/client3/rdock/2013.1/src/exe/rbdock.cxx#4 $)

>  <Rbt.Library>
libRbt.so (2013.1, Build901 2013/11/27)

>  <Rbt.Parameter_File>
/home/adria/Escritorio/rDock_2013.1_src/data/scripts/dock.prm

>  <Rbt.Receptor>
sah_rdock.prm

>  <SCORE>
-52.9274

>  <SCORE.INTER>
-14.2039

>  <SCORE.INTER.CONST>
1

>  <SCORE.INTER.POLAR>
-0.658433

>  <SCORE.INTER.REPUL>
0

>  <SCORE.INTER.ROT>
7

>  <SCORE.INTER.VDW>
-24.3653

>  <SCORE.INTER.norm>
-0.430422

>  <SCORE.INTRA>
-36.9201

>  <SCORE.INTRA.DIHEDRAL>
-76.8231

>  <SCORE.INTRA.DIHEDRAL.0>
106.227

>  <SCORE.INTRA.POLAR>
0

>  <SCORE.INTRA.POLAR.0>
0

>  <SCORE.INTRA.REPUL>
0

>  <SCORE.INTRA.REPUL.0>
0

>  <SCORE.INTRA.VDW>
1.49147

>  <SCORE.INTRA.VDW.0>
-3.6965

>  <SCORE.INTRA.norm>
-1.11879

>  <SCORE.RESTR>
0

>  <SCORE.RESTR.CAVITY>
0

>  <SCORE.RESTR.norm>
0

>  <SCORE.SYSTEM>
-1.80338

>  <SCORE.SYSTEM.CONST>
0

>  <SCORE.SYSTEM.DIHEDRAL>
2.8925

>  <SCORE.SYSTEM.POLAR>
-3.62483

>  <SCORE.SYSTEM.VDW>
9.07478

>  <SCORE.SYSTEM.norm>
-0.0546477

>  <SCORE.heavy>
33

>  <SCORE.norm>
-1.60386

$$$$
F3285-1784
  rDOCK(R)          3D
libRbt.so/2013.1/901 2013/11/27
 33 36  0  0  0  0  0  0  0  0999 V2000
  -20.6526   23.6295  -12.0352 C   0  0  0  0  0  0
  -20.9061   22.7090  -13.2210 C   0  0  0  0  0  0
  -21.2105   21.3290  -12.7931 N   0  0  0  0  0  0
  -20.3280   20.3150  -13.1488 C   0  0  0  0  0  0
  -20.3459   19.0079  -12.8918 C   0  0  0  0  0  0
  -21.4836   18.1097  -11.9834 S   0  0  0  0  0  0
  -22.6827   17.7931  -13.2702 C   0  0  0  0  0  0
  -22.8258   18.6494  -14.3690 C   0  0  0  0  0  0
  -23.8098   18.4102  -15.3301 C   0  0  0  0  0  0
  -24.6409   17.2986  -15.2136 C   0  0  0  0  0  0
  -24.4800   16.4187  -14.1445 C   0  0  0  0  0  0
  -23.5018   16.6629  -13.1774 C   0  0  0  0  0  0
  -19.2151   18.3663  -13.5881 C   0  0  0  0  0  0
  -18.9566   17.1794  -13.4725 O   0  0  0  0  0  0
  -18.5973   19.3293  -14.3448 N   0  0  0  0  0  0
  -19.1914   20.5391  -14.0895 C   0  0  0  0  0  0
  -18.9133   21.6507  -14.5162 O   0  0  0  0  0  0
  -17.5231   19.1038  -15.2657 C   0  0  0  0  0  0
  -17.1462   17.8065  -15.6598 C   0  0  0  0  0  0
  -16.1184   17.5711  -16.5958 C   0  0  0  0  0  0
  -15.4421   18.6609  -17.1505 C   0  0  0  0  0  0
  -15.7886   19.9525  -16.7768 C   0  0  0  0  0  0
  -16.8144   20.1675  -15.8487 C   0  0  0  0  0  0
  -15.7488   16.1672  -17.0108 C   0  0  0  0  0  0
  -16.4190   15.1967  -16.3312 F   0  0  0  0  0  0
  -15.9989   15.9364  -18.3301 F   0  0  0  0  0  0
  -14.4251   15.9038  -16.8305 F   0  0  0  0  0  0
  -22.2667   21.1227  -11.8676 C   0  0  0  0  0  0
  -22.0387   20.6810  -10.5516 C   0  0  0  0  0  0
  -23.0867   20.4882   -9.6408 C   0  0  0  0  0  0
  -24.3992   20.7336  -10.0219 C   0  0  0  0  0  0
  -24.6605   21.1834  -11.3092 C   0  0  0  0  0  0
  -23.6080   21.3834  -12.2119 C   0  0  0  0  0  0
  1  2  1  0  0  0
  2  3  1  0  0  0
  3  4  1  0  0  0
  3 28  1  0  0  0
  4  5  2  0  0  0
  4 16  1  0  0  0
  5  6  1  0  0  0
  5 13  1  0  0  0
  6  7  1  0  0  0
  7  8  2  0  0  0
  7 12  1  0  0  0
  8  9  1  0  0  0
  9 10  2  0  0  0
 10 11  1  0  0  0
 11 12  2  0  0  0
 13 14  2  0  0  0
 13 15  1  0  0  0
 15 16  1  0  0  0
 15 18  1  0  0  0
 16 17  2  0  0  0
 18 19  2  0  0  0
 18 23  1  0  0  0
 19 20  1  0  0  0
 20 21  2  0  0  0
 20 24  1  0  0  0
 21 22  1  0  0  0
 22 23  2  0  0  0
 24 25  1  0  0  0
 24 26  1  0  0  0
 24 27  1  0  0  0
 28 29  2  0  0  0
 28 33  1  0  0  0
 29 30  1  0  0  0
 30 31  2  0  0  0
 31 32  1  0  0  0
 32 33  2  0  0  0
M  END
>  <CHROM.0>
-64.52828030,-167.93967586,-40.57927164,60.06100191,168.72823713,61.40163860
-35.91356444,-47.21535726

>  <CHROM.1>
-115.91553655,179.24831239,-111.78294044,85.94684681,-26.49629257,11.46919840
-4.66632729,-19.98698224,18.94589951,-14.05100280,-2.58610843,-0.40755948
-2.71520035

>  <Name>
F3285-1784

>  <RI>
2.74661e+07

>  <Rbt.Current_Directory>
/home/adria/Escritorio/rDock_CMTR_LC/2pxcA_model/inputs_sah

>  <Rbt.Executable>
rbdock ($Id: //depot/dev/client3/rdock/2013.1/src/exe/rbdock.cxx#4 $)

>  <Rbt.Library>
libRbt.so (2013.1, Build901 2013/11/27)

>  <Rbt.Parameter_File>
/home/adria/Escritorio/rDock_2013.1_src/data/scripts/dock.prm

>  <Rbt.Receptor>
sah_rdock.prm

>  <SCORE>
-51.998

>  <SCORE.INTER>
-12.4734

>  <SCORE.INTER.CONST>
1

>  <SCORE.INTER.POLAR>
-0.587754

>  <SCORE.INTER.REPUL>
0

>  <SCORE.INTER.ROT>
7

>  <SCORE.INTER.VDW>
-22.875

>  <SCORE.INTER.norm>
-0.377982

>  <SCORE.INTRA>
-40.374

>  <SCORE.INTRA.DIHEDRAL>
-85.5229

>  <SCORE.INTRA.DIHEDRAL.0>
106.227

>  <SCORE.INTRA.POLAR>
0

>  <SCORE.INTRA.POLAR.0>
0

>  <SCORE.INTRA.REPUL>
0

>  <SCORE.INTRA.REPUL.0>
0

>  <SCORE.INTRA.VDW>
2.38746

>  <SCORE.INTRA.VDW.0>
-3.6965

>  <SCORE.INTRA.norm>
-1.22345

>  <SCORE.RESTR>
0

>  <SCORE.RESTR.CAVITY>
0

>  <SCORE.RESTR.norm>
0

>  <SCORE.SYSTEM>
0.849325

>  <SCORE.SYSTEM.CONST>
0

>  <SCORE.SYSTEM.DIHEDRAL>
6.09687

>  <SCORE.SYSTEM.POLAR>
-3.26694

>  <SCORE.SYSTEM.REPUL>
0.0188722

>  <SCORE.SYSTEM.VDW>
8.81413

>  <SCORE.SYSTEM.norm>
0.0257371

>  <SCORE.heavy>
33

>  <SCORE.norm>
-1.5757

$$$$
F3285-1784
  rDOCK(R)          3D
libRbt.so/2013.1/901 2013/11/27
 33 36  0  0  0  0  0  0  0  0999 V2000
  -23.3096   20.8385   -9.3483 C   0  0  0  0  0  0
  -23.5143   20.8845  -10.8562 C   0  0  0  0  0  0
  -22.3283   21.4145  -11.5581 N   0  0  0  0  0  0
  -21.4220   20.5115  -12.1026 C   0  0  0  0  0  0
  -21.3680   19.1815  -12.0443 C   0  0  0  0  0  0
  -22.4144   18.1011  -11.2296 S   0  0  0  0  0  0
  -23.7718   18.0951  -12.3920 C   0  0  0  0  0  0
  -23.5565   18.0199  -13.7737 C   0  0  0  0  0  0
  -24.6319   18.0755  -14.6623 C   0  0  0  0  0  0
  -25.9326   18.1804  -14.1753 C   0  0  0  0  0  0
  -26.1598   18.2160  -12.8004 C   0  0  0  0  0  0
  -25.0833   18.1701  -11.9111 C   0  0  0  0  0  0
  -20.2487   18.7096  -12.8808 C   0  0  0  0  0  0
  -19.9320   17.5336  -12.9569 O   0  0  0  0  0  0
  -19.7157   19.8046  -13.5119 N   0  0  0  0  0  0
  -20.3484   20.9308  -13.0506 C   0  0  0  0  0  0
  -20.1433   22.1063  -13.3178 O   0  0  0  0  0  0
  -18.6834   19.7738  -14.5050 C   0  0  0  0  0  0
  -18.0515   18.5732  -14.8787 C   0  0  0  0  0  0
  -17.0630   18.5216  -15.8827 C   0  0  0  0  0  0
  -16.6889   19.7028  -16.5290 C   0  0  0  0  0  0
  -17.2914   20.9035  -16.1779 C   0  0  0  0  0  0
  -18.2738   20.9352  -15.1810 C   0  0  0  0  0  0
  -16.4157   17.2144  -16.2727 C   0  0  0  0  0  0
  -17.0992   16.1141  -15.8544 F   0  0  0  0  0  0
  -16.2913   17.0829  -17.6230 F   0  0  0  0  0  0
  -15.1574   17.0872  -15.7681 F   0  0  0  0  0  0
  -22.2669   22.8060  -11.8313 C   0  0  0  0  0  0
  -21.2458   23.6287  -11.3215 C   0  0  0  0  0  0
  -21.1872   25.0006  -11.6034 C   0  0  0  0  0  0
  -22.1526   25.5918  -12.4076 C   0  0  0  0  0  0
  -23.1678   24.8079  -12.9390 C   0  0  0  0  0  0
  -23.2156   23.4355  -12.6615 C   0  0  0  0  0  0
  1  2  1  0  0  0
  2  3  1  0  0  0
  3  4  1  0  0  0
  3 28  1  0  0  0
  4  5  2  0  0  0
  4 16  1  0  0  0
  5  6  1  0  0  0
  5 13  1  0  0  0
  6  7  1  0  0  0
  7  8  2  0  0  0
  7 12  1  0  0  0
  8  9  1  0  0  0
  9 10  2  0  0  0
 10 11  1  0  0  0
 11 12  2  0  0  0
 13 14  2  0  0  0
 13 15  1  0  0  0
 15 16  1  0  0  0
 15 18  1  0  0  0
 16 17  2  0  0  0
 18 19  2  0  0  0
 18 23  1  0  0  0
 19 20  1  0  0  0
 20 21  2  0  0  0
 20 24  1  0  0  0
 21 22  1  0  0  0
 22 23  2  0  0  0
 24 25  1  0  0  0
 24 26  1  0  0  0
 24 27  1  0  0  0
 28 29  2  0  0  0
 28 33  1  0  0  0
 29 30  1  0  0  0
 30 31  2  0  0  0
 31 32  1  0  0  0
 32 33  2  0  0  0
M  END
>  <CHROM.0>
-177.33401791,-72.24159187,-130.39304848,-61.84475730,168.23928585,61.56424456
-36.86329564,-162.76252852

>  <CHROM.1>
97.22066344,-4.84333142,119.44944314,78.44566514,43.21416822,-3.71784788
16.59495335,-20.75690564,19.81246043,-13.44681354,2.61546078,0.45306501,0.24080540

>  <Name>
F3285-1784

>  <RI>
2.74661e+07

>  <Rbt.Current_Directory>
/home/adria/Escritorio/rDock_CMTR_LC/2pxcA_model/inputs_sah

>  <Rbt.Executable>
rbdock ($Id: //depot/dev/client3/rdock/2013.1/src/exe/rbdock.cxx#4 $)

>  <Rbt.Library>
libRbt.so (2013.1, Build901 2013/11/27)

>  <Rbt.Parameter_File>
/home/adria/Escritorio/rDock_2013.1_src/data/scripts/dock.prm

>  <Rbt.Receptor>
sah_rdock.prm

>  <SCORE>
-53.1364

>  <SCORE.INTER>
-10.3503

>  <SCORE.INTER.CONST>
1

>  <SCORE.INTER.POLAR>
-0.417357

>  <SCORE.INTER.REPUL>
0

>  <SCORE.INTER.ROT>
7

>  <SCORE.INTER.VDW>
-21.3312

>  <SCORE.INTER.norm>
-0.313644

>  <SCORE.INTRA>
-41.1266

>  <SCORE.INTRA.DIHEDRAL>
-85.59

>  <SCORE.INTRA.DIHEDRAL.0>
106.227

>  <SCORE.INTRA.POLAR>
0

>  <SCORE.INTRA.POLAR.0>
0

>  <SCORE.INTRA.REPUL>
0

>  <SCORE.INTRA.REPUL.0>
0

>  <SCORE.INTRA.VDW>
1.66837

>  <SCORE.INTRA.VDW.0>
-3.6965

>  <SCORE.INTRA.norm>
-1.24626

>  <SCORE.RESTR>
0

>  <SCORE.RESTR.CAVITY>
0

>  <SCORE.RESTR.norm>
0

>  <SCORE.SYSTEM>
-1.65952

>  <SCORE.SYSTEM.CONST>
0

>  <SCORE.SYSTEM.DIHEDRAL>
6.36234

>  <SCORE.SYSTEM.POLAR>
-4.39996

>  <SCORE.SYSTEM.REPUL>
0.0371531

>  <SCORE.SYSTEM.VDW>
9.93341

>  <SCORE.SYSTEM.norm>
-0.0502885

>  <SCORE.heavy>
33

>  <SCORE.norm>
-1.61019

$$$$
F3285-1784
  rDOCK(R)          3D
libRbt.so/2013.1/901 2013/11/27
 33 36  0  0  0  0  0  0  0  0999 V2000
  -18.9327   20.2937  -17.5435 C   0  0  0  0  0  0
  -18.4287   20.0986  -16.1202 C   0  0  0  0  0  0
  -19.2608   19.1393  -15.3668 N   0  0  0  0  0  0
  -20.3048   19.6331  -14.5923 C   0  0  0  0  0  0
  -21.2908   19.0083  -13.9501 C   0  0  0  0  0  0
  -21.6333   17.3337  -13.8818 S   0  0  0  0  0  0
  -22.7090   17.2093  -15.3036 C   0  0  0  0  0  0
  -23.9427   16.5502  -15.2370 C   0  0  0  0  0  0
  -24.7373   16.4172  -16.3772 C   0  0  0  0  0  0
  -24.3164   16.9649  -17.5867 C   0  0  0  0  0  0
  -23.1083   17.6571  -17.6539 C   0  0  0  0  0  0
  -22.3084   17.7822  -16.5153 C   0  0  0  0  0  0
  -22.0774   20.0019  -13.1956 C   0  0  0  0  0  0
  -23.0816   19.7091  -12.5672 O   0  0  0  0  0  0
  -21.4532   21.2151  -13.3370 N   0  0  0  0  0  0
  -20.4019   21.0714  -14.2064 C   0  0  0  0  0  0
  -19.6250   21.9115  -14.6374 O   0  0  0  0  0  0
  -21.8256   22.4269  -12.6695 C   0  0  0  0  0  0
  -22.7713   22.4372  -11.6274 C   0  0  0  0  0  0
  -23.1176   23.6153  -10.9345 C   0  0  0  0  0  0
  -22.5076   24.8197  -11.2951 C   0  0  0  0  0  0
  -21.5744   24.8413  -12.3229 C   0  0  0  0  0  0
  -21.2401   23.6611  -12.9977 C   0  0  0  0  0  0
  -24.1241   23.5903   -9.8092 C   0  0  0  0  0  0
  -24.8951   22.4688   -9.7837 F   0  0  0  0  0  0
  -23.5309   23.6607   -8.5847 F   0  0  0  0  0  0
  -24.9910   24.6389   -9.8645 F   0  0  0  0  0  0
  -19.0997   17.7528  -15.6240 C   0  0  0  0  0  0
  -18.8976   16.8150  -14.5951 C   0  0  0  0  0  0
  -18.7482   15.4460  -14.8567 C   0  0  0  0  0  0
  -18.7975   14.9733  -16.1615 C   0  0  0  0  0  0
  -19.0087   15.8687  -17.2013 C   0  0  0  0  0  0
  -19.1669   17.2345  -16.9326 C   0  0  0  0  0  0
  1  2  1  0  0  0
  2  3  1  0  0  0
  3  4  1  0  0  0
  3 28  1  0  0  0
  4  5  2  0  0  0
  4 16  1  0  0  0
  5  6  1  0  0  0
  5 13  1  0  0  0
  6  7  1  0  0  0
  7  8  2  0  0  0
  7 12  1  0  0  0
  8  9  1  0  0  0
  9 10  2  0  0  0
 10 11  1  0  0  0
 11 12  2  0  0  0
 13 14  2  0  0  0
 13 15  1  0  0  0
 15 16  1  0  0  0
 15 18  1  0  0  0
 16 17  2  0  0  0
 18 19  2  0  0  0
 18 23  1  0  0  0
 19 20  1  0  0  0
 20 21  2  0  0  0
 20 24  1  0  0  0
 21 22  1  0  0  0
 22 23  2  0  0  0
 24 25  1  0  0  0
 24 26  1  0  0  0
 24 27  1  0  0  0
 28 29  2  0  0  0
 28 33  1  0  0  0
 29 30  1  0  0  0
 30 31  2  0  0  0
 31 32  1  0  0  0
 32 33  2  0  0  0
M  END
>  <CHROM.0>
-60.73097268,-169.07931164,-44.76048755,-60.27406953,-30.34317204,-178.40521846
-156.75669202,-159.80096847

>  <CHROM.1>
-93.41764358,171.08123097,129.25246382,-89.71715823,-131.47977492,9.84843119
-16.89433106,-21.65868897,19.92803385,-13.88505611,-1.21645138,0.38877507
0.56245981

>  <Name>
F3285-1784

>  <RI>
2.74661e+07

>  <Rbt.Current_Directory>
/home/adria/Escritorio/rDock_CMTR_LC/2pxcA_model/inputs_sah

>  <Rbt.Executable>
rbdock ($Id: //depot/dev/client3/rdock/2013.1/src/exe/rbdock.cxx#4 $)

>  <Rbt.Library>
libRbt.so (2013.1, Build901 2013/11/27)

>  <Rbt.Parameter_File>
/home/adria/Escritorio/rDock_2013.1_src/data/scripts/dock.prm

>  <Rbt.Receptor>
sah_rdock.prm

>  <SCORE>
-54.7865

>  <SCORE.INTER>
-8.94646

>  <SCORE.INTER.CONST>
1

>  <SCORE.INTER.POLAR>
0

>  <SCORE.INTER.REPUL>
0

>  <SCORE.INTER.ROT>
7

>  <SCORE.INTER.VDW>
-21.3465

>  <SCORE.INTER.norm>
-0.271105

>  <SCORE.INTRA>
-39.5185

>  <SCORE.INTRA.DIHEDRAL>
-84.5479

>  <SCORE.INTRA.DIHEDRAL.0>
106.227

>  <SCORE.INTRA.POLAR>
0

>  <SCORE.INTRA.POLAR.0>
0

>  <SCORE.INTRA.REPUL>
0

>  <SCORE.INTRA.REPUL.0>
0

>  <SCORE.INTRA.VDW>
2.75544

>  <SCORE.INTRA.VDW.0>
-3.6965

>  <SCORE.INTRA.norm>
-1.19753

>  <SCORE.RESTR>
0

>  <SCORE.RESTR.CAVITY>
0

>  <SCORE.RESTR.norm>
0

>  <SCORE.SYSTEM>
-6.32152

>  <SCORE.SYSTEM.CONST>
0

>  <SCORE.SYSTEM.DIHEDRAL>
6.40944

>  <SCORE.SYSTEM.POLAR>
-3.76139

>  <SCORE.SYSTEM.VDW>
3.26249

>  <SCORE.SYSTEM.norm>
-0.191561

>  <SCORE.heavy>
33

>  <SCORE.norm>
-1.6602

$$$$
F3285-1784
  rDOCK(R)          3D
libRbt.so/2013.1/901 2013/11/27
 33 36  0  0  0  0  0  0  0  0999 V2000
  -22.5594   25.6951  -11.7037 C   0  0  0  0  0  0
  -22.0596   24.7161  -10.6504 C   0  0  0  0  0  0
  -22.9226   23.5219  -10.5534 N   0  0  0  0  0  0
  -22.4676   22.3290  -11.1043 C   0  0  0  0  0  0
  -23.0004   21.1078  -11.1112 C   0  0  0  0  0  0
  -24.4590   20.5708  -10.3970 S   0  0  0  0  0  0
  -25.2381   19.8689  -11.8442 C   0  0  0  0  0  0
  -25.6794   18.5402  -11.8704 C   0  0  0  0  0  0
  -26.2320   18.0001  -13.0332 C   0  0  0  0  0  0
  -26.3715   18.7919  -14.1705 C   0  0  0  0  0  0
  -25.9715   20.1270  -14.1419 C   0  0  0  0  0  0
  -25.4096   20.6652  -12.9815 C   0  0  0  0  0  0
  -22.1493   20.2176  -11.9225 C   0  0  0  0  0  0
  -22.3709   19.0238  -12.0446 O   0  0  0  0  0  0
  -21.1566   20.9868  -12.4743 N   0  0  0  0  0  0
  -21.2637   22.2632  -11.9836 C   0  0  0  0  0  0
  -20.5527   23.2380  -12.1821 O   0  0  0  0  0  0
  -20.1826   20.5355  -13.4232 C   0  0  0  0  0  0
  -20.5502   20.0930  -14.7075 C   0  0  0  0  0  0
  -19.5998   19.6845  -15.6655 C   0  0  0  0  0  0
  -18.2433   19.7121  -15.3312 C   0  0  0  0  0  0
  -17.8508   20.1391  -14.0697 C   0  0  0  0  0  0
  -18.8082   20.5446  -13.1322 C   0  0  0  0  0  0
  -20.0254   19.2307  -17.0413 C   0  0  0  0  0  0
  -19.6140   17.9726  -17.3588 F   0  0  0  0  0  0
  -21.3801   19.2258  -17.1868 F   0  0  0  0  0  0
  -19.5474   20.0402  -18.0263 F   0  0  0  0  0  0
  -24.0755   23.5830   -9.7278 C   0  0  0  0  0  0
  -25.2974   24.1143  -10.1794 C   0  0  0  0  0  0
  -26.4341   24.1627   -9.3606 C   0  0  0  0  0  0
  -26.3812   23.6782   -8.0604 C   0  0  0  0  0  0
  -25.1954   23.1345   -7.5852 C   0  0  0  0  0  0
  -24.0654   23.0801   -8.4115 C   0  0  0  0  0  0
  1  2  1  0  0  0
  2  3  1  0  0  0
  3  4  1  0  0  0
  3 28  1  0  0  0
  4  5  2  0  0  0
  4 16  1  0  0  0
  5  6  1  0  0  0
  5 13  1  0  0  0
  6  7  1  0  0  0
  7  8  2  0  0  0
  7 12  1  0  0  0
  8  9  1  0  0  0
  9 10  2  0  0  0
 10 11  1  0  0  0
 11 12  2  0  0  0
 13 14  2  0  0  0
 13 15  1  0  0  0
 15 16  1  0  0  0
 15 18  1  0  0  0
 16 17  2  0  0  0
 18 19  2  0  0  0
 18 23  1  0  0  0
 19 20  1  0  0  0
 20 21  2  0  0  0
 20 24  1  0  0  0
 21 22  1  0  0  0
 22 23  2  0  0  0
 24 25  1  0  0  0
 24 26  1  0  0  0
 24 27  1  0  0  0
 28 29  2  0  0  0
 28 33  1  0  0  0
 29 30  1  0  0  0
 30 31  2  0  0  0
 31 32  1  0  0  0
 32 33  2  0  0  0
M  END
>  <CHROM.0>
-65.13505270,-75.06356554,72.71650239,62.76736095,-30.08147423,59.50060804
-156.76755265,-164.95488464

>  <CHROM.1>
104.70420398,176.71990342,84.21975997,124.87682489,124.52917239,63.91738403
-122.51061831,-22.61287830,21.10003122,-12.61356913,-2.23093544,-0.39092403
-2.35592176

>  <Name>
F3285-1784

>  <RI>
2.74661e+07

>  <Rbt.Current_Directory>
/home/adria/Escritorio/rDock_CMTR_LC/2pxcA_model/inputs_sah

>  <Rbt.Executable>
rbdock ($Id: //depot/dev/client3/rdock/2013.1/src/exe/rbdock.cxx#4 $)

>  <Rbt.Library>
libRbt.so (2013.1, Build901 2013/11/27)

>  <Rbt.Parameter_File>
/home/adria/Escritorio/rDock_2013.1_src/data/scripts/dock.prm

>  <Rbt.Receptor>
sah_rdock.prm

>  <SCORE>
-49.5602

>  <SCORE.INTER>
-4.51376

>  <SCORE.INTER.CONST>
1

>  <SCORE.INTER.POLAR>
0

>  <SCORE.INTER.REPUL>
0.348182

>  <SCORE.INTER.ROT>
7

>  <SCORE.INTER.VDW>
-18.6547

>  <SCORE.INTER.norm>
-0.136781

>  <SCORE.INTRA>
-36.9886

>  <SCORE.INTRA.DIHEDRAL>
-75.3352

>  <SCORE.INTRA.DIHEDRAL.0>
106.227

>  <SCORE.INTRA.POLAR>
0

>  <SCORE.INTRA.POLAR.0>
0

>  <SCORE.INTRA.REPUL>
0

>  <SCORE.INTRA.REPUL.0>
0

>  <SCORE.INTRA.VDW>
0.679042

>  <SCORE.INTRA.VDW.0>
-3.6965

>  <SCORE.INTRA.norm>
-1.12087

>  <SCORE.RESTR>
0

>  <SCORE.RESTR.CAVITY>
0

>  <SCORE.RESTR.norm>
0

>  <SCORE.SYSTEM>
-8.05787

>  <SCORE.SYSTEM.CONST>
0

>  <SCORE.SYSTEM.DIHEDRAL>
6.69851

>  <SCORE.SYSTEM.POLAR>
-4.17301

>  <SCORE.SYSTEM.REPUL>
0.0420105

>  <SCORE.SYSTEM.VDW>
2.57104

>  <SCORE.SYSTEM.norm>
-0.244178

>  <SCORE.heavy>
33

>  <SCORE.norm>
-1.50182

$$$$
F3285-1784
  rDOCK(R)          3D
libRbt.so/2013.1/901 2013/11/27
 33 36  0  0  0  0  0  0  0  0999 V2000
  -16.6830   20.0030  -16.1389 C   0  0  0  0  0  0
  -18.1273   20.4799  -16.2034 C   0  0  0  0  0  0
  -19.0286   19.6187  -15.4121 N   0  0  0  0  0  0
  -20.0133   20.2236  -14.6388 C   0  0  0  0  0  0
  -21.0284   19.7041  -13.9497 C   0  0  0  0  0  0
  -21.4956   18.0653  -13.8012 S   0  0  0  0  0  0
  -22.5140   17.9304  -15.2636 C   0  0  0  0  0  0
  -23.6687   17.1384  -15.2851 C   0  0  0  0  0  0
  -24.4142   17.0047  -16.4580 C   0  0  0  0  0  0
  -24.0254   17.6825  -17.6110 C   0  0  0  0  0  0
  -22.8999   18.5046  -17.5885 C   0  0  0  0  0  0
  -22.1482   18.6311  -16.4177 C   0  0  0  0  0  0
  -21.7189   20.7862  -13.2234 C   0  0  0  0  0  0
  -22.7273   20.5984  -12.5624 O   0  0  0  0  0  0
  -21.0078   21.9407  -13.4306 N   0  0  0  0  0  0
  -19.9915   21.6800  -14.3142 C   0  0  0  0  0  0
  -19.1634   22.4389  -14.7974 O   0  0  0  0  0  0
  -21.2710   23.2046  -12.8093 C   0  0  0  0  0  0
  -20.4026   23.7508  -11.8460 C   0  0  0  0  0  0
  -20.6273   25.0115  -11.2561 C   0  0  0  0  0  0
  -21.7544   25.7466  -11.6329 C   0  0  0  0  0  0
  -22.6320   25.2310  -12.5773 C   0  0  0  0  0  0
  -22.3910   23.9790  -13.1554 C   0  0  0  0  0  0
  -19.6673   25.5775  -10.2373 C   0  0  0  0  0  0
  -19.0728   26.7390  -10.6254 F   0  0  0  0  0  0
  -20.2772   25.8516   -9.0502 F   0  0  0  0  0  0
  -18.6529   24.7174   -9.9456 F   0  0  0  0  0  0
  -18.9935   18.2168  -15.6314 C   0  0  0  0  0  0
  -18.8647   17.2932  -14.5780 C   0  0  0  0  0  0
  -18.8399   15.9097  -14.8022 C   0  0  0  0  0  0
  -18.9442   15.4078  -16.0927 C   0  0  0  0  0  0
  -19.0860   16.2896  -17.1557 C   0  0  0  0  0  0
  -19.1198   17.6709  -16.9243 C   0  0  0  0  0  0
  1  2  1  0  0  0
  2  3  1  0  0  0
  3  4  1  0  0  0
  3 28  1  0  0  0
  4  5  2  0  0  0
  4 16  1  0  0  0
  5  6  1  0  0  0
  5 13  1  0  0  0
  6  7  1  0  0  0
  7  8  2  0  0  0
  7 12  1  0  0  0
  8  9  1  0  0  0
  9 10  2  0  0  0
 10 11  1  0  0  0
 11 12  2  0  0  0
 13 14  2  0  0  0
 13 15  1  0  0  0
 15 16  1  0  0  0
 15 18  1  0  0  0
 16 17  2  0  0  0
 18 19  2  0  0  0
 18 23  1  0  0  0
 19 20  1  0  0  0
 20 21  2  0  0  0
 20 24  1  0  0  0
 21 22  1  0  0  0
 22 23  2  0  0  0
 24 25  1  0  0  0
 24 26  1  0  0  0
 24 27  1  0  0  0
 28 29  2  0  0  0
 28 33  1  0  0  0
 29 30  1  0  0  0
 30 31  2  0  0  0
 31 32  1  0  0  0
 32 33  2  0  0  0
M  END
>  <CHROM.0>
-61.64052748,63.14637126,75.00104763,62.95689142,-29.10003151,59.08726258
82.11404905,-163.75126271

>  <CHROM.1>
138.04542231,172.24218142,129.55053716,-85.68312004,-144.39215434,110.06051178
117.77211408,-20.60714314,20.77927970,-13.95057005,-1.63457664,0.01111237
0.57920491

>  <Name>
F3285-1784

>  <RI>
2.74661e+07

>  <Rbt.Current_Directory>
/home/adria/Escritorio/rDock_CMTR_LC/2pxcA_model/inputs_sah

>  <Rbt.Executable>
rbdock ($Id: //depot/dev/client3/rdock/2013.1/src/exe/rbdock.cxx#4 $)

>  <Rbt.Library>
libRbt.so (2013.1, Build901 2013/11/27)

>  <Rbt.Parameter_File>
/home/adria/Escritorio/rDock_2013.1_src/data/scripts/dock.prm

>  <Rbt.Receptor>
sah_rdock.prm

>  <SCORE>
-58.7587

>  <SCORE.INTER>
-16.8215

>  <SCORE.INTER.CONST>
1

>  <SCORE.INTER.POLAR>
0

>  <SCORE.INTER.REPUL>
0

>  <SCORE.INTER.ROT>
7

>  <SCORE.INTER.VDW>
-29.2215

>  <SCORE.INTER.norm>
-0.509742

>  <SCORE.INTRA>
-34.6783

>  <SCORE.INTRA.DIHEDRAL>
-74.2988

>  <SCORE.INTRA.DIHEDRAL.0>
106.227

>  <SCORE.INTRA.POLAR>
0

>  <SCORE.INTRA.POLAR.0>
0

>  <SCORE.INTRA.REPUL>
0

>  <SCORE.INTRA.REPUL.0>
0

>  <SCORE.INTRA.VDW>
2.47116

>  <SCORE.INTRA.VDW.0>
-3.6965

>  <SCORE.INTRA.norm>
-1.05086

>  <SCORE.RESTR>
0

>  <SCORE.RESTR.CAVITY>
0

>  <SCORE.RESTR.norm>
0

>  <SCORE.SYSTEM>
-7.25897

>  <SCORE.SYSTEM.CONST>
0

>  <SCORE.SYSTEM.DIHEDRAL>
5.85748

>  <SCORE.SYSTEM.POLAR>
-3.72544

>  <SCORE.SYSTEM.VDW>
2.47878

>  <SCORE.SYSTEM.norm>
-0.219969

>  <SCORE.heavy>
33

>  <SCORE.norm>
-1.78057

$$$$
F3285-1784
  rDOCK(R)          3D
libRbt.so/2013.1/901 2013/11/27
 33 36  0  0  0  0  0  0  0  0999 V2000
  -21.3124   23.1335  -12.7507 C   0  0  0  0  0  0
  -20.6535   22.2218  -11.7248 C   0  0  0  0  0  0
  -21.4274   20.9828  -11.5101 N   0  0  0  0  0  0
  -21.0049   19.8194  -12.1437 C   0  0  0  0  0  0
  -21.5314   18.5958  -12.1707 C   0  0  0  0  0  0
  -22.9366   18.0162  -11.3863 S   0  0  0  0  0  0
  -24.1437   19.0999  -12.1363 C   0  0  0  0  0  0
  -25.3719   19.3707  -11.5206 C   0  0  0  0  0  0
  -26.3205   20.1747  -12.1555 C   0  0  0  0  0  0
  -26.0380   20.7350  -13.3989 C   0  0  0  0  0  0
  -24.8026   20.5033  -14.0017 C   0  0  0  0  0  0
  -23.8568   19.6911  -13.3712 C   0  0  0  0  0  0
  -20.7324   17.7495  -13.0765 C   0  0  0  0  0  0
  -20.9562   16.5608  -13.2378 O   0  0  0  0  0  0
  -19.7823   18.5503  -13.6576 N   0  0  0  0  0  0
  -19.8621   19.8024  -13.1033 C   0  0  0  0  0  0
  -19.1703   20.7905  -13.3041 O   0  0  0  0  0  0
  -18.8718   18.1496  -14.6888 C   0  0  0  0  0  0
  -18.9200   16.8645  -15.2603 C   0  0  0  0  0  0
  -18.0574   16.4699  -16.3034 C   0  0  0  0  0  0
  -17.1148   17.3812  -16.7868 C   0  0  0  0  0  0
  -17.0403   18.6548  -16.2389 C   0  0  0  0  0  0
  -17.9074   19.0306  -15.2060 C   0  0  0  0  0  0
  -18.1455   15.0887  -16.9071 C   0  0  0  0  0  0
  -18.6666   15.0686  -18.1645 F   0  0  0  0  0  0
  -16.9262   14.4881  -17.0012 F   0  0  0  0  0  0
  -18.9198   14.2472  -16.1679 F   0  0  0  0  0  0
  -22.4361   20.9770  -10.5116 C   0  0  0  0  0  0
  -22.4002   20.1020   -9.4106 C   0  0  0  0  0  0
  -23.3958   20.1087   -8.4238 C   0  0  0  0  0  0
  -24.4608   20.9956   -8.5101 C   0  0  0  0  0  0
  -24.5219   21.8829   -9.5762 C   0  0  0  0  0  0
  -23.5188   21.8779  -10.5541 C   0  0  0  0  0  0
  1  2  1  0  0  0
  2  3  1  0  0  0
  3  4  1  0  0  0
  3 28  1  0  0  0
  4  5  2  0  0  0
  4 16  1  0  0  0
  5  6  1  0  0  0
  5 13  1  0  0  0
  6  7  1  0  0  0
  7  8  2  0  0  0
  7 12  1  0  0  0
  8  9  1  0  0  0
  9 10  2  0  0  0
 10 11  1  0  0  0
 11 12  2  0  0  0
 13 14  2  0  0  0
 13 15  1  0  0  0
 15 16  1  0  0  0
 15 18  1  0  0  0
 16 17  2  0  0  0
 18 19  2  0  0  0
 18 23  1  0  0  0
 19 20  1  0  0  0
 20 21  2  0  0  0
 20 24  1  0  0  0
 21 22  1  0  0  0
 22 23  2  0  0  0
 24 25  1  0  0  0
 24 26  1  0  0  0
 24 27  1  0  0  0
 28 29  2  0  0  0
 28 33  1  0  0  0
 29 30  1  0  0  0
 30 31  2  0  0  0
 31 32  1  0  0  0
 32 33  2  0  0  0
M  END
>  <CHROM.0>
-59.62493002,-166.32983018,-44.42256099,151.95196206,-31.09531822,-175.77759987
-36.83397081,-156.34024667

>  <CHROM.1>
100.41746782,-177.01735735,-119.59888541,60.43507474,-157.09547772,3.18406607
108.17141068,-21.19452068,18.83186885,-13.22997977,-2.30058746,-0.37542752
-2.58324614

>  <Name>
F3285-1784

>  <RI>
2.74661e+07

>  <Rbt.Current_Directory>
/home/adria/Escritorio/rDock_CMTR_LC/2pxcA_model/inputs_sah

>  <Rbt.Executable>
rbdock ($Id: //depot/dev/client3/rdock/2013.1/src/exe/rbdock.cxx#4 $)

>  <Rbt.Library>
libRbt.so (2013.1, Build901 2013/11/27)

>  <Rbt.Parameter_File>
/home/adria/Escritorio/rDock_2013.1_src/data/scripts/dock.prm

>  <Rbt.Receptor>
sah_rdock.prm

>  <SCORE>
-53.4567

>  <SCORE.INTER>
-8.01147

>  <SCORE.INTER.CONST>
1

>  <SCORE.INTER.POLAR>
0

>  <SCORE.INTER.REPUL>
0

>  <SCORE.INTER.ROT>
7

>  <SCORE.INTER.VDW>
-20.4115

>  <SCORE.INTER.norm>
-0.242772

>  <SCORE.INTRA>
-42.5402

>  <SCORE.INTRA.DIHEDRAL>
-88.4022

>  <SCORE.INTRA.DIHEDRAL.0>
106.227

>  <SCORE.INTRA.POLAR>
0

>  <SCORE.INTRA.POLAR.0>
0

>  <SCORE.INTRA.REPUL>
0

>  <SCORE.INTRA.REPUL.0>
0

>  <SCORE.INTRA.VDW>
1.66091

>  <SCORE.INTRA.VDW.0>
-3.6965

>  <SCORE.INTRA.norm>
-1.2891

>  <SCORE.RESTR>
0

>  <SCORE.RESTR.CAVITY>
0

>  <SCORE.RESTR.norm>
0

>  <SCORE.SYSTEM>
-2.90508

>  <SCORE.SYSTEM.CONST>
0

>  <SCORE.SYSTEM.DIHEDRAL>
10.0637

>  <SCORE.SYSTEM.POLAR>
-3.69699

>  <SCORE.SYSTEM.VDW>
4.63284

>  <SCORE.SYSTEM.norm>
-0.0880326

>  <SCORE.heavy>
33

>  <SCORE.norm>
-1.6199

$$$$
