F3222-0429
  rDOCK(R)          3D
libRbt.so/2013.1/901 2013/11/27
 32 35  0  0  0  0  0  0  0  0999 V2000
  -23.9914   17.0872  -16.2109 C   0  0  0  0  0  0
  -23.5136   17.8812  -15.1237 O   0  0  0  0  0  0
  -23.8748   17.4874  -13.8582 C   0  0  0  0  0  0
  -24.2525   16.3511  -13.6139 O   0  0  0  0  0  0
  -23.6919   18.6039  -12.9175 C   0  0  0  0  0  0
  -22.6302   19.5161  -12.6971 C   0  0  0  0  0  0
  -23.0415   20.4915  -11.6440 C   0  0  0  0  0  0
  -24.3046   20.2378  -11.1698 C   0  0  0  0  0  0
  -25.0465   18.9327  -11.8877 S   0  0  0  0  0  0
  -22.5946   21.7825  -11.1522 C   0  0  0  0  0  0
  -23.4644   22.4078   -9.6846 C   0  0  0  0  0  0
  -23.1955   24.0226   -9.0197 C   0  0  0  0  0  0
  -21.9467   25.0044   -9.4579 C   0  0  0  0  0  0
  -21.7976   26.4422   -9.1740 C   0  0  0  0  0  0
  -20.8571   24.4777  -10.6667 C   0  0  0  0  0  0
  -21.1215   22.7542  -11.7308 C   0  0  0  0  0  0
  -21.1032   19.3048  -13.6499 S   0  0  0  0  0  0
  -20.1276   19.8815  -12.7454 O   0  0  0  0  0  0
  -21.1146   17.8832  -13.9419 O   0  0  0  0  0  0
  -20.7951   20.0941  -15.1568 N   0  0  0  0  0  0
  -20.8303   19.2603  -16.3927 C   0  0  0  0  0  0
  -19.4647   19.0354  -17.1267 C   0  0  0  0  0  0
  -18.2893   19.2581  -16.2535 N   0  0  0  0  0  0
  -18.4919   20.3629  -15.3246 C   0  0  0  0  0  0
  -19.7482   21.1214  -15.2293 C   0  0  0  0  0  0
  -17.0910   18.3741  -16.2816 C   0  0  0  0  0  0
  -16.6661   16.4697  -17.0018 C   0  0  0  0  0  0
  -14.9755   16.1082  -17.5076 C   0  0  0  0  0  0
  -14.6266   14.6445  -18.3296 Cl  0  0  0  0  0  0
  -13.7259   17.3135  -17.2657 C   0  0  0  0  0  0
  -14.0513   18.9079  -16.5468 C   0  0  0  0  0  0
  -15.6575   19.4677  -16.1083 C   0  0  0  0  0  0
  1  2  1  0  0  0
  2  3  1  0  0  0
  3  4  2  0  0  0
  3  5  1  0  0  0
  5  6  2  0  0  0
  5  9  1  0  0  0
  6  7  1  0  0  0
  6 17  1  0  0  0
  7  8  2  0  0  0
  7 10  1  0  0  0
  8  9  1  0  0  0
 10 11  2  0  0  0
 10 16  1  0  0  0
 11 12  1  0  0  0
 12 13  2  0  0  0
 13 14  1  0  0  0
 13 15  1  0  0  0
 15 16  2  0  0  0
 17 18  2  0  0  0
 17 19  2  0  0  0
 17 20  1  0  0  0
 20 21  1  0  0  0
 20 25  1  0  0  0
 21 22  1  0  0  0
 22 23  1  0  0  0
 23 24  1  0  0  0
 23 26  1  0  0  0
 24 25  1  0  0  0
 26 27  2  0  0  0
 26 32  1  0  0  0
 27 28  1  0  0  0
 28 29  1  0  0  0
 28 30  2  0  0  0
 30 31  1  0  0  0
 31 32  2  0  0  0
M  END
>  <CHROM.0>
-56.35886509,-164.23209239,81.58683234,67.06972946,-29.78689694,-177.63641731
-36.76852753,-160.74838587

>  <CHROM.1>
19.90999936,-47.09611728,-152.44344539,-174.45573882,-107.69304303,-16.96057999
-20.47278427,19.41703587,-14.04188385,2.35111656,0.31579372,0.59217783

>  <Name>
F3222-0429

>  <RI>
2.78429e+07

>  <Rbt.Current_Directory>
/home/adria/Escritorio/rDock_CMTR_LC/2pxcA_model/inputs_sah

>  <Rbt.Executable>
rbdock ($Id: //depot/dev/client3/rdock/2013.1/src/exe/rbdock.cxx#4 $)

>  <Rbt.Library>
libRbt.so (2013.1, Build901 2013/11/27)

>  <Rbt.Parameter_File>
/home/adria/Escritorio/rDock_2013.1_src/data/scripts/dock.prm

>  <Rbt.Receptor>
sah_rdock.prm

>  <SCORE>
-296.287

>  <SCORE.INTER>
-8.64168

>  <SCORE.INTER.CONST>
1

>  <SCORE.INTER.POLAR>
0

>  <SCORE.INTER.REPUL>
0.175561

>  <SCORE.INTER.ROT>
6

>  <SCORE.INTER.VDW>
-20.9195

>  <SCORE.INTER.norm>
-0.270053

>  <SCORE.INTRA>
-281.692

>  <SCORE.INTRA.DIHEDRAL>
-12.6503

>  <SCORE.INTRA.DIHEDRAL.0>
29.1771

>  <SCORE.INTRA.POLAR>
0

>  <SCORE.INTRA.POLAR.0>
0

>  <SCORE.INTRA.REPUL>
0

>  <SCORE.INTRA.REPUL.0>
0

>  <SCORE.INTRA.VDW>
-275.367

>  <SCORE.INTRA.VDW.0>
275.184

>  <SCORE.INTRA.norm>
-8.80287

>  <SCORE.RESTR>
0.0488724

>  <SCORE.RESTR.CAVITY>
0.0488724

>  <SCORE.RESTR.norm>
0.00152726

>  <SCORE.SYSTEM>
-6.0028

>  <SCORE.SYSTEM.CONST>
0

>  <SCORE.SYSTEM.DIHEDRAL>
7.85171

>  <SCORE.SYSTEM.POLAR>
-3.78304

>  <SCORE.SYSTEM.VDW>
2.93367

>  <SCORE.SYSTEM.norm>
-0.187588

>  <SCORE.heavy>
32

>  <SCORE.norm>
-9.25898

$$$$
F3222-0429
  rDOCK(R)          3D
libRbt.so/2013.1/901 2013/11/27
 32 35  0  0  0  0  0  0  0  0999 V2000
  -24.9237   20.2175  -10.4972 C   0  0  0  0  0  0
  -24.0027   19.8907  -11.5392 O   0  0  0  0  0  0
  -22.8278   19.2849  -11.1654 C   0  0  0  0  0  0
  -22.5860   18.9970  -10.0027 O   0  0  0  0  0  0
  -21.9980   19.0311  -12.3536 C   0  0  0  0  0  0
  -20.8404   19.6607  -12.8747 C   0  0  0  0  0  0
  -20.3877   18.9140  -14.0861 C   0  0  0  0  0  0
  -21.2069   17.8506  -14.3737 C   0  0  0  0  0  0
  -22.4706   17.6634  -13.3073 S   0  0  0  0  0  0
  -19.1908   18.8326  -14.9039 C   0  0  0  0  0  0
  -19.3088   17.7575  -16.3639 C   0  0  0  0  0  0
  -17.9279   17.3856  -17.4015 C   0  0  0  0  0  0
  -16.4882   18.1852  -17.3428 C   0  0  0  0  0  0
  -15.2133   17.7777  -17.9581 C   0  0  0  0  0  0
  -16.2680   19.4210  -16.1809 C   0  0  0  0  0  0
  -17.6446   19.8472  -14.7330 C   0  0  0  0  0  0
  -20.2174   21.1428  -12.0385 S   0  0  0  0  0  0
  -21.0207   21.1407  -10.8313 O   0  0  0  0  0  0
  -18.7880   20.8959  -11.9948 O   0  0  0  0  0  0
  -20.4014   22.7450  -12.6612 N   0  0  0  0  0  0
  -20.1533   23.8811  -11.7276 C   0  0  0  0  0  0
  -21.3989   24.7389  -11.3192 C   0  0  0  0  0  0
  -22.6847   24.0301  -11.5140 N   0  0  0  0  0  0
  -22.6814   23.1972  -12.7102 C   0  0  0  0  0  0
  -21.5080   23.0357  -13.5818 C   0  0  0  0  0  0
  -23.7991   24.1062  -10.5289 C   0  0  0  0  0  0
  -25.8719   23.9579  -10.6159 C   0  0  0  0  0  0
  -26.7441   23.3528   -9.1606 C   0  0  0  0  0  0
  -28.4153   22.9832   -9.2614 Cl  0  0  0  0  0  0
  -25.8474   23.0287   -7.6898 C   0  0  0  0  0  0
  -24.0877   23.2576   -7.5638 C   0  0  0  0  0  0
  -23.0685   23.7259   -8.9156 C   0  0  0  0  0  0
  1  2  1  0  0  0
  2  3  1  0  0  0
  3  4  2  0  0  0
  3  5  1  0  0  0
  5  6  2  0  0  0
  5  9  1  0  0  0
  6  7  1  0  0  0
  6 17  1  0  0  0
  7  8  2  0  0  0
  7 10  1  0  0  0
  8  9  1  0  0  0
 10 11  2  0  0  0
 10 16  1  0  0  0
 11 12  1  0  0  0
 12 13  2  0  0  0
 13 14  1  0  0  0
 13 15  1  0  0  0
 15 16  2  0  0  0
 17 18  2  0  0  0
 17 19  2  0  0  0
 17 20  1  0  0  0
 20 21  1  0  0  0
 20 25  1  0  0  0
 21 22  1  0  0  0
 22 23  1  0  0  0
 23 24  1  0  0  0
 23 26  1  0  0  0
 24 25  1  0  0  0
 26 27  2  0  0  0
 26 32  1  0  0  0
 27 28  1  0  0  0
 28 29  1  0  0  0
 28 30  2  0  0  0
 30 31  1  0  0  0
 31 32  2  0  0  0
M  END
>  <CHROM.0>
178.07918162,-172.75279895,-165.45495076,63.78335365,168.46317301,-57.07800460
-155.59271890,-168.43169474

>  <CHROM.1>
2.12462744,104.45892358,9.97316540,-176.41701391,165.01239512,151.91853501
-21.84590694,20.92242790,-12.26318463,2.48892544,0.47249423,0.42249961

>  <Name>
F3222-0429

>  <RI>
2.78429e+07

>  <Rbt.Current_Directory>
/home/adria/Escritorio/rDock_CMTR_LC/2pxcA_model/inputs_sah

>  <Rbt.Executable>
rbdock ($Id: //depot/dev/client3/rdock/2013.1/src/exe/rbdock.cxx#4 $)

>  <Rbt.Library>
libRbt.so (2013.1, Build901 2013/11/27)

>  <Rbt.Parameter_File>
/home/adria/Escritorio/rDock_2013.1_src/data/scripts/dock.prm

>  <Rbt.Receptor>
sah_rdock.prm

>  <SCORE>
-294.882

>  <SCORE.INTER>
-13.0621

>  <SCORE.INTER.CONST>
1

>  <SCORE.INTER.POLAR>
-0.463172

>  <SCORE.INTER.REPUL>
0.358978

>  <SCORE.INTER.ROT>
6

>  <SCORE.INTER.VDW>
-24.6822

>  <SCORE.INTER.norm>
-0.408191

>  <SCORE.INTRA>
-281.756

>  <SCORE.INTRA.DIHEDRAL>
-10.0997

>  <SCORE.INTRA.DIHEDRAL.0>
29.1771

>  <SCORE.INTRA.POLAR>
0

>  <SCORE.INTRA.POLAR.0>
0

>  <SCORE.INTRA.REPUL>
0

>  <SCORE.INTRA.REPUL.0>
0

>  <SCORE.INTRA.VDW>
-276.706

>  <SCORE.INTRA.VDW.0>
275.184

>  <SCORE.INTRA.norm>
-8.80488

>  <SCORE.RESTR>
0.883057

>  <SCORE.RESTR.CAVITY>
0.883057

>  <SCORE.RESTR.norm>
0.0275955

>  <SCORE.SYSTEM>
-0.946842

>  <SCORE.SYSTEM.CONST>
0

>  <SCORE.SYSTEM.DIHEDRAL>
2.97352

>  <SCORE.SYSTEM.POLAR>
-3.57663

>  <SCORE.SYSTEM.VDW>
9.72695

>  <SCORE.SYSTEM.norm>
-0.0295888

>  <SCORE.heavy>
32

>  <SCORE.norm>
-9.21507

$$$$
F3222-0429
  rDOCK(R)          3D
libRbt.so/2013.1/901 2013/11/27
 32 35  0  0  0  0  0  0  0  0999 V2000
  -24.6945   16.0241  -15.0936 C   0  0  0  0  0  0
  -24.5818   16.9877  -14.0450 O   0  0  0  0  0  0
  -23.4989   16.8739  -13.2076 C   0  0  0  0  0  0
  -22.7764   15.8884  -13.2093 O   0  0  0  0  0  0
  -23.3637   18.0957  -12.3989 C   0  0  0  0  0  0
  -22.3292   19.0547  -12.2647 C   0  0  0  0  0  0
  -22.7871   20.1337  -11.3396 C   0  0  0  0  0  0
  -24.0542   19.9034  -10.8641 C   0  0  0  0  0  0
  -24.7485   18.5053  -11.4408 S   0  0  0  0  0  0
  -22.3822   21.4840  -10.9918 C   0  0  0  0  0  0
  -23.3409   22.2745   -9.6661 C   0  0  0  0  0  0
  -23.1268   23.9647   -9.1978 C   0  0  0  0  0  0
  -21.8649   24.9047   -9.6870 C   0  0  0  0  0  0
  -21.7468   26.3692   -9.5803 C   0  0  0  0  0  0
  -20.7025   24.2485  -10.7567 C   0  0  0  0  0  0
  -20.8881   22.4001  -11.6063 C   0  0  0  0  0  0
  -20.7765   18.7751  -13.1564 S   0  0  0  0  0  0
  -19.9673   18.1602  -12.1222 O   0  0  0  0  0  0
  -21.2171   18.0238  -14.3172 O   0  0  0  0  0  0
  -19.7785   20.0474  -13.7681 N   0  0  0  0  0  0
  -20.0893   20.5756  -15.1276 C   0  0  0  0  0  0
  -19.0430   20.2739  -16.2538 C   0  0  0  0  0  0
  -18.1642   19.1235  -15.9409 N   0  0  0  0  0  0
  -17.8134   19.0640  -14.5274 C   0  0  0  0  0  0
  -18.3310   20.0060  -13.5238 C   0  0  0  0  0  0
  -17.7805   18.1075  -16.9601 C   0  0  0  0  0  0
  -15.9975   17.4524  -17.8072 C   0  0  0  0  0  0
  -15.9072   15.7513  -18.3924 C   0  0  0  0  0  0
  -14.3978   15.0941  -18.8714 Cl  0  0  0  0  0  0
  -17.3423   14.7458  -18.3473 C   0  0  0  0  0  0
  -18.9064   15.3261  -17.7292 C   0  0  0  0  0  0
  -19.1411   16.9129  -17.0134 C   0  0  0  0  0  0
  1  2  1  0  0  0
  2  3  1  0  0  0
  3  4  2  0  0  0
  3  5  1  0  0  0
  5  6  2  0  0  0
  5  9  1  0  0  0
  6  7  1  0  0  0
  6 17  1  0  0  0
  7  8  2  0  0  0
  7 10  1  0  0  0
  8  9  1  0  0  0
 10 11  2  0  0  0
 10 16  1  0  0  0
 11 12  1  0  0  0
 12 13  2  0  0  0
 13 14  1  0  0  0
 13 15  1  0  0  0
 15 16  2  0  0  0
 17 18  2  0  0  0
 17 19  2  0  0  0
 17 20  1  0  0  0
 20 21  1  0  0  0
 20 25  1  0  0  0
 21 22  1  0  0  0
 22 23  1  0  0  0
 23 24  1  0  0  0
 23 26  1  0  0  0
 24 25  1  0  0  0
 26 27  2  0  0  0
 26 32  1  0  0  0
 27 28  1  0  0  0
 28 29  1  0  0  0
 28 30  2  0  0  0
 30 31  1  0  0  0
 31 32  2  0  0  0
M  END
>  <CHROM.0>
-62.06283681,-164.53953959,73.31179582,64.05132226,-30.80833603,-175.93447989
-36.42374491,-159.82330853

>  <CHROM.1>
-11.31952378,-120.20241788,-96.42295454,-176.68762083,-86.76982226,118.65355962
-20.57352106,18.94873517,-13.85420218,2.25092695,0.46305465,0.54353393

>  <Name>
F3222-0429

>  <RI>
2.78429e+07

>  <Rbt.Current_Directory>
/home/adria/Escritorio/rDock_CMTR_LC/2pxcA_model/inputs_sah

>  <Rbt.Executable>
rbdock ($Id: //depot/dev/client3/rdock/2013.1/src/exe/rbdock.cxx#4 $)

>  <Rbt.Library>
libRbt.so (2013.1, Build901 2013/11/27)

>  <Rbt.Parameter_File>
/home/adria/Escritorio/rDock_2013.1_src/data/scripts/dock.prm

>  <Rbt.Receptor>
sah_rdock.prm

>  <SCORE>
-297.533

>  <SCORE.INTER>
-12.5218

>  <SCORE.INTER.CONST>
1

>  <SCORE.INTER.POLAR>
-0.513655

>  <SCORE.INTER.REPUL>
0.0698189

>  <SCORE.INTER.ROT>
6

>  <SCORE.INTER.VDW>
-22.5245

>  <SCORE.INTER.norm>
-0.391307

>  <SCORE.INTRA>
-278.592

>  <SCORE.INTRA.DIHEDRAL>
-5.40435

>  <SCORE.INTRA.DIHEDRAL.0>
29.1771

>  <SCORE.INTRA.POLAR>
0

>  <SCORE.INTRA.POLAR.0>
0

>  <SCORE.INTRA.REPUL>
0

>  <SCORE.INTRA.REPUL.0>
0

>  <SCORE.INTRA.VDW>
-275.89

>  <SCORE.INTRA.VDW.0>
275.184

>  <SCORE.INTRA.norm>
-8.706

>  <SCORE.RESTR>
0.0851415

>  <SCORE.RESTR.CAVITY>
0.0851415

>  <SCORE.RESTR.norm>
0.00266067

>  <SCORE.SYSTEM>
-6.50453

>  <SCORE.SYSTEM.CONST>
0

>  <SCORE.SYSTEM.DIHEDRAL>
6.90365

>  <SCORE.SYSTEM.POLAR>
-3.7792

>  <SCORE.SYSTEM.VDW>
2.89293

>  <SCORE.SYSTEM.norm>
-0.203266

>  <SCORE.heavy>
32

>  <SCORE.norm>
-9.29791

$$$$
F3222-0429
  rDOCK(R)          3D
libRbt.so/2013.1/901 2013/11/27
 32 35  0  0  0  0  0  0  0  0999 V2000
  -24.5818   15.9970  -15.2760 C   0  0  0  0  0  0
  -24.4466   17.0385  -14.3077 O   0  0  0  0  0  0
  -23.6500   16.7783  -13.2192 C   0  0  0  0  0  0
  -23.1538   15.6786  -13.0248 O   0  0  0  0  0  0
  -23.4883   18.0006  -12.4163 C   0  0  0  0  0  0
  -22.4338   18.9384  -12.2877 C   0  0  0  0  0  0
  -22.8680   20.0309  -11.3670 C   0  0  0  0  0  0
  -24.1389   19.8293  -10.8890 C   0  0  0  0  0  0
  -24.8631   18.4434  -11.4584 S   0  0  0  0  0  0
  -22.4345   21.3740  -11.0258 C   0  0  0  0  0  0
  -20.9398   21.9572  -11.8786 C   0  0  0  0  0  0
  -20.1470   23.4891  -11.4955 C   0  0  0  0  0  0
  -20.8204   24.6681  -10.5617 C   0  0  0  0  0  0
  -20.1440   25.8347   -9.9690 C   0  0  0  0  0  0
  -22.3583   24.4005   -9.8623 C   0  0  0  0  0  0
  -23.3404   22.6132   -9.9805 C   0  0  0  0  0  0
  -20.8885   18.6225  -13.1800 S   0  0  0  0  0  0
  -20.0923   17.9918  -12.1451 O   0  0  0  0  0  0
  -21.3467   17.8787  -14.3389 O   0  0  0  0  0  0
  -19.8628   19.8709  -13.7951 N   0  0  0  0  0  0
  -20.1700   20.4113  -15.1506 C   0  0  0  0  0  0
  -19.1402   20.0868  -16.2855 C   0  0  0  0  0  0
  -18.2887   18.9134  -15.9827 N   0  0  0  0  0  0
  -17.9292   18.8402  -14.5721 C   0  0  0  0  0  0
  -18.4151   19.7919  -13.5617 C   0  0  0  0  0  0
  -17.9386   17.8913  -17.0079 C   0  0  0  0  0  0
  -16.1933   17.2764  -17.9575 C   0  0  0  0  0  0
  -16.0860   15.5685  -18.5197 C   0  0  0  0  0  0
  -14.5900   14.9497  -19.0843 Cl  0  0  0  0  0  0
  -17.4823   14.5201  -18.3658 C   0  0  0  0  0  0
  -19.0215   15.0627  -17.6576 C   0  0  0  0  0  0
  -19.2607   16.6544  -16.9539 C   0  0  0  0  0  0
  1  2  1  0  0  0
  2  3  1  0  0  0
  3  4  2  0  0  0
  3  5  1  0  0  0
  5  6  2  0  0  0
  5  9  1  0  0  0
  6  7  1  0  0  0
  6 17  1  0  0  0
  7  8  2  0  0  0
  7 10  1  0  0  0
  8  9  1  0  0  0
 10 11  2  0  0  0
 10 16  1  0  0  0
 11 12  1  0  0  0
 12 13  2  0  0  0
 13 14  1  0  0  0
 13 15  1  0  0  0
 15 16  2  0  0  0
 17 18  2  0  0  0
 17 19  2  0  0  0
 17 20  1  0  0  0
 20 21  1  0  0  0
 20 25  1  0  0  0
 21 22  1  0  0  0
 22 23  1  0  0  0
 23 24  1  0  0  0
 23 26  1  0  0  0
 24 25  1  0  0  0
 26 27  2  0  0  0
 26 32  1  0  0  0
 27 28  1  0  0  0
 28 29  1  0  0  0
 28 30  2  0  0  0
 30 31  1  0  0  0
 31 32  2  0  0  0
M  END
>  <CHROM.0>
-63.85162410,-74.66276789,-10.20729332,67.14004179,-30.27547616,54.87667600
-37.43216131,-159.59845589

>  <CHROM.1>
-5.30166663,-102.35488881,-96.25938874,-1.68325154,-86.24900410,113.89038736
-20.56146904,18.79208667,-13.98251018,0.90863198,-0.46258419,-2.58668751

>  <Name>
F3222-0429

>  <RI>
2.78429e+07

>  <Rbt.Current_Directory>
/home/adria/Escritorio/rDock_CMTR_LC/2pxcA_model/inputs_sah

>  <Rbt.Executable>
rbdock ($Id: //depot/dev/client3/rdock/2013.1/src/exe/rbdock.cxx#4 $)

>  <Rbt.Library>
libRbt.so (2013.1, Build901 2013/11/27)

>  <Rbt.Parameter_File>
/home/adria/Escritorio/rDock_2013.1_src/data/scripts/dock.prm

>  <Rbt.Receptor>
sah_rdock.prm

>  <SCORE>
-299.557

>  <SCORE.INTER>
-12.873

>  <SCORE.INTER.CONST>
1

>  <SCORE.INTER.POLAR>
-0.54469

>  <SCORE.INTER.REPUL>
0.0582074

>  <SCORE.INTER.ROT>
6

>  <SCORE.INTER.VDW>
-22.7121

>  <SCORE.INTER.norm>
-0.402282

>  <SCORE.INTRA>
-279.364

>  <SCORE.INTRA.DIHEDRAL>
-3.39464

>  <SCORE.INTRA.DIHEDRAL.0>
29.1771

>  <SCORE.INTRA.POLAR>
0

>  <SCORE.INTRA.POLAR.0>
0

>  <SCORE.INTRA.REPUL>
0

>  <SCORE.INTRA.REPUL.0>
0

>  <SCORE.INTRA.VDW>
-277.667

>  <SCORE.INTRA.VDW.0>
275.184

>  <SCORE.INTRA.norm>
-8.73013

>  <SCORE.RESTR>
0

>  <SCORE.RESTR.CAVITY>
0

>  <SCORE.RESTR.norm>
0

>  <SCORE.SYSTEM>
-7.3202

>  <SCORE.SYSTEM.CONST>
0

>  <SCORE.SYSTEM.DIHEDRAL>
9.99326

>  <SCORE.SYSTEM.POLAR>
-4.62997

>  <SCORE.SYSTEM.REPUL>
0.0413687

>  <SCORE.SYSTEM.VDW>
3.21824

>  <SCORE.SYSTEM.norm>
-0.228756

>  <SCORE.heavy>
32

>  <SCORE.norm>
-9.36117

$$$$
F3222-0429
  rDOCK(R)          3D
libRbt.so/2013.1/901 2013/11/27
 32 35  0  0  0  0  0  0  0  0999 V2000
  -20.7538   23.3483  -11.2007 C   0  0  0  0  0  0
  -20.1894   22.3186  -12.0141 O   0  0  0  0  0  0
  -20.7582   22.1167  -13.2481 C   0  0  0  0  0  0
  -21.8009   22.6607  -13.5802 O   0  0  0  0  0  0
  -19.9096   21.2187  -14.0472 C   0  0  0  0  0  0
  -19.7841   19.8085  -14.1063 C   0  0  0  0  0  0
  -18.7987   19.4550  -15.1711 C   0  0  0  0  0  0
  -18.2773   20.5680  -15.7827 C   0  0  0  0  0  0
  -18.8764   22.0050  -15.1952 S   0  0  0  0  0  0
  -18.4171   18.2720  -15.9215 C   0  0  0  0  0  0
  -19.1270   16.7062  -15.3336 C   0  0  0  0  0  0
  -18.6702   15.1324  -15.9941 C   0  0  0  0  0  0
  -17.8012   14.9305  -17.3796 C   0  0  0  0  0  0
  -17.1468   13.6986  -17.8531 C   0  0  0  0  0  0
  -17.2476   16.3107  -18.2247 C   0  0  0  0  0  0
  -17.4585   18.2132  -17.5111 C   0  0  0  0  0  0
  -20.7534   18.8096  -12.9459 S   0  0  0  0  0  0
  -19.8291   17.7271  -12.6695 O   0  0  0  0  0  0
  -21.1089   19.7782  -11.9254 O   0  0  0  0  0  0
  -22.2250   18.0062  -13.3678 N   0  0  0  0  0  0
  -23.1233   18.6813  -14.3483 C   0  0  0  0  0  0
  -24.4893   19.2145  -13.7971 C   0  0  0  0  0  0
  -24.4892   19.4117  -12.3292 N   0  0  0  0  0  0
  -23.7263   18.3831  -11.6331 C   0  0  0  0  0  0
  -22.9906   17.3133  -12.3237 C   0  0  0  0  0  0
  -25.1249   20.5911  -11.6789 C   0  0  0  0  0  0
  -25.5000   21.1859   -9.7215 C   0  0  0  0  0  0
  -25.5756   22.9504   -9.3673 C   0  0  0  0  0  0
  -25.6385   23.4912   -7.7415 Cl  0  0  0  0  0  0
  -25.4573   24.1008  -10.6846 C   0  0  0  0  0  0
  -25.2486   23.6057  -12.3805 C   0  0  0  0  0  0
  -25.0376   21.9373  -12.8878 C   0  0  0  0  0  0
  1  2  1  0  0  0
  2  3  1  0  0  0
  3  4  2  0  0  0
  3  5  1  0  0  0
  5  6  2  0  0  0
  5  9  1  0  0  0
  6  7  1  0  0  0
  6 17  1  0  0  0
  7  8  2  0  0  0
  7 10  1  0  0  0
  8  9  1  0  0  0
 10 11  2  0  0  0
 10 16  1  0  0  0
 11 12  1  0  0  0
 12 13  2  0  0  0
 13 14  1  0  0  0
 13 15  1  0  0  0
 15 16  2  0  0  0
 17 18  2  0  0  0
 17 19  2  0  0  0
 17 20  1  0  0  0
 20 21  1  0  0  0
 20 25  1  0  0  0
 21 22  1  0  0  0
 22 23  1  0  0  0
 23 24  1  0  0  0
 23 26  1  0  0  0
 24 25  1  0  0  0
 26 27  2  0  0  0
 26 32  1  0  0  0
 27 28  1  0  0  0
 28 29  1  0  0  0
 28 30  2  0  0  0
 30 31  1  0  0  0
 31 32  2  0  0  0
M  END
>  <CHROM.0>
-60.81511244,66.11085845,110.81087489,65.57431779,168.47989378,-177.70891704
82.78752284,-162.40716482

>  <CHROM.1>
-9.24136741,83.02350616,-144.14647768,-10.07441664,-34.82224949,173.80936442
-21.48466984,19.96362609,-13.26362573,-2.42374803,-0.61294876,-2.88246038

>  <Name>
F3222-0429

>  <RI>
2.78429e+07

>  <Rbt.Current_Directory>
/home/adria/Escritorio/rDock_CMTR_LC/2pxcA_model/inputs_sah

>  <Rbt.Executable>
rbdock ($Id: //depot/dev/client3/rdock/2013.1/src/exe/rbdock.cxx#4 $)

>  <Rbt.Library>
libRbt.so (2013.1, Build901 2013/11/27)

>  <Rbt.Parameter_File>
/home/adria/Escritorio/rDock_2013.1_src/data/scripts/dock.prm

>  <Rbt.Receptor>
sah_rdock.prm

>  <SCORE>
-300.76

>  <SCORE.INTER>
-14.7575

>  <SCORE.INTER.CONST>
1

>  <SCORE.INTER.POLAR>
-0.824459

>  <SCORE.INTER.REPUL>
0.00405868

>  <SCORE.INTER.ROT>
6

>  <SCORE.INTER.VDW>
-23.3746

>  <SCORE.INTER.norm>
-0.461172

>  <SCORE.INTRA>
-283.979

>  <SCORE.INTRA.DIHEDRAL>
-13.3367

>  <SCORE.INTRA.DIHEDRAL.0>
29.1771

>  <SCORE.INTRA.POLAR>
0

>  <SCORE.INTRA.POLAR.0>
0

>  <SCORE.INTRA.REPUL>
0

>  <SCORE.INTRA.REPUL.0>
0

>  <SCORE.INTRA.VDW>
-277.311

>  <SCORE.INTRA.VDW.0>
275.184

>  <SCORE.INTRA.norm>
-8.87434

>  <SCORE.RESTR>
0

>  <SCORE.RESTR.CAVITY>
0

>  <SCORE.RESTR.norm>
0

>  <SCORE.SYSTEM>
-2.02319

>  <SCORE.SYSTEM.CONST>
0

>  <SCORE.SYSTEM.DIHEDRAL>
5.95719

>  <SCORE.SYSTEM.POLAR>
-4.17696

>  <SCORE.SYSTEM.VDW>
9.19988

>  <SCORE.SYSTEM.norm>
-0.0632248

>  <SCORE.heavy>
32

>  <SCORE.norm>
-9.39874

$$$$
F3222-0429
  rDOCK(R)          3D
libRbt.so/2013.1/901 2013/11/27
 32 35  0  0  0  0  0  0  0  0999 V2000
  -17.9899   18.4695  -17.6715 C   0  0  0  0  0  0
  -19.3043   18.3611  -17.1225 O   0  0  0  0  0  0
  -20.2083   19.3344  -17.4725 C   0  0  0  0  0  0
  -19.9346   20.2198  -18.2691 O   0  0  0  0  0  0
  -21.4875   19.0968  -16.7854 C   0  0  0  0  0  0
  -21.8139   18.6566  -15.4786 C   0  0  0  0  0  0
  -23.2986   18.6736  -15.3195 C   0  0  0  0  0  0
  -23.9362   19.0862  -16.4630 C   0  0  0  0  0  0
  -22.9046   19.4658  -17.7124 S   0  0  0  0  0  0
  -24.2554   18.6222  -14.2285 C   0  0  0  0  0  0
  -23.5961   19.0323  -12.5858 C   0  0  0  0  0  0
  -24.5409   18.8749  -11.1010 C   0  0  0  0  0  0
  -26.1708   18.6346  -11.0659 C   0  0  0  0  0  0
  -26.9891   18.2221   -9.9126 C   0  0  0  0  0  0
  -27.0210   18.4704  -12.5410 C   0  0  0  0  0  0
  -26.0924   18.3822  -14.3585 C   0  0  0  0  0  0
  -20.4628   18.1771  -14.3702 S   0  0  0  0  0  0
  -21.1502   18.1345  -13.0942 O   0  0  0  0  0  0
  -19.9609   16.9689  -14.9984 O   0  0  0  0  0  0
  -19.0754   19.1627  -14.0658 N   0  0  0  0  0  0
  -18.7151   19.4269  -12.6431 C   0  0  0  0  0  0
  -18.8986   20.8969  -12.1339 C   0  0  0  0  0  0
  -19.8396   21.6875  -12.9605 N   0  0  0  0  0  0
  -19.7293   21.3716  -14.3791 C   0  0  0  0  0  0
  -18.8290   20.3378  -14.9113 C   0  0  0  0  0  0
  -20.8384   22.6199  -12.3678 C   0  0  0  0  0  0
  -21.6246   24.4763  -12.8793 C   0  0  0  0  0  0
  -23.2963   24.8717  -12.3374 C   0  0  0  0  0  0
  -24.0754   26.2775  -12.9344 Cl  0  0  0  0  0  0
  -24.1564   23.7483  -11.3025 C   0  0  0  0  0  0
  -23.4551   22.2049  -10.7628 C   0  0  0  0  0  0
  -21.8891   21.6104  -11.2916 C   0  0  0  0  0  0
  1  2  1  0  0  0
  2  3  1  0  0  0
  3  4  2  0  0  0
  3  5  1  0  0  0
  5  6  2  0  0  0
  5  9  1  0  0  0
  6  7  1  0  0  0
  6 17  1  0  0  0
  7  8  2  0  0  0
  7 10  1  0  0  0
  8  9  1  0  0  0
 10 11  2  0  0  0
 10 16  1  0  0  0
 11 12  1  0  0  0
 12 13  2  0  0  0
 13 14  1  0  0  0
 13 15  1  0  0  0
 15 16  2  0  0  0
 17 18  2  0  0  0
 17 19  2  0  0  0
 17 20  1  0  0  0
 20 21  1  0  0  0
 20 25  1  0  0  0
 21 22  1  0  0  0
 22 23  1  0  0  0
 23 24  1  0  0  0
 23 26  1  0  0  0
 24 25  1  0  0  0
 26 27  2  0  0  0
 26 32  1  0  0  0
 27 28  1  0  0  0
 28 29  1  0  0  0
 28 30  2  0  0  0
 30 31  1  0  0  0
 31 32  2  0  0  0
M  END
>  <CHROM.0>
-61.72550976,-166.33432650,73.62270216,66.57669487,168.28992159,-177.00039317
-36.40270289,-168.03119919

>  <CHROM.1>
3.63632827,39.16220058,166.09835315,18.67624543,128.58729814,142.73683246
-22.02316302,20.24311631,-14.07540446,-0.80171900,0.53714159,0.39655877

>  <Name>
F3222-0429

>  <RI>
2.78429e+07

>  <Rbt.Current_Directory>
/home/adria/Escritorio/rDock_CMTR_LC/2pxcA_model/inputs_sah

>  <Rbt.Executable>
rbdock ($Id: //depot/dev/client3/rdock/2013.1/src/exe/rbdock.cxx#4 $)

>  <Rbt.Library>
libRbt.so (2013.1, Build901 2013/11/27)

>  <Rbt.Parameter_File>
/home/adria/Escritorio/rDock_2013.1_src/data/scripts/dock.prm

>  <Rbt.Receptor>
sah_rdock.prm

>  <SCORE>
-287.611

>  <SCORE.INTER>
-2.74396

>  <SCORE.INTER.CONST>
1

>  <SCORE.INTER.POLAR>
0

>  <SCORE.INTER.REPUL>
0.0279623

>  <SCORE.INTER.ROT>
6

>  <SCORE.INTER.VDW>
-14.2838

>  <SCORE.INTER.norm>
-0.0857489

>  <SCORE.INTRA>
-283.963

>  <SCORE.INTRA.DIHEDRAL>
-11.9853

>  <SCORE.INTRA.DIHEDRAL.0>
29.1771

>  <SCORE.INTRA.POLAR>
0

>  <SCORE.INTRA.POLAR.0>
0

>  <SCORE.INTRA.REPUL>
0

>  <SCORE.INTRA.REPUL.0>
0

>  <SCORE.INTRA.VDW>
-277.971

>  <SCORE.INTRA.VDW.0>
275.184

>  <SCORE.INTRA.norm>
-8.87386

>  <SCORE.RESTR>
0.725838

>  <SCORE.RESTR.CAVITY>
0.725838

>  <SCORE.RESTR.norm>
0.0226824

>  <SCORE.SYSTEM>
-1.62992

>  <SCORE.SYSTEM.CONST>
0

>  <SCORE.SYSTEM.DIHEDRAL>
3.63997

>  <SCORE.SYSTEM.POLAR>
-3.66235

>  <SCORE.SYSTEM.VDW>
9.00207

>  <SCORE.SYSTEM.norm>
-0.050935

>  <SCORE.heavy>
32

>  <SCORE.norm>
-8.98786

$$$$
F3222-0429
  rDOCK(R)          3D
libRbt.so/2013.1/901 2013/11/27
 32 35  0  0  0  0  0  0  0  0999 V2000
  -22.9934   23.6176  -10.2620 C   0  0  0  0  0  0
  -22.1048   23.0948  -11.2508 O   0  0  0  0  0  0
  -22.2019   21.7532  -11.5296 C   0  0  0  0  0  0
  -23.0549   21.0431  -11.0182 O   0  0  0  0  0  0
  -21.1826   21.3751  -12.5210 C   0  0  0  0  0  0
  -20.6878   20.1246  -12.9677 C   0  0  0  0  0  0
  -19.6947   20.3591  -14.0578 C   0  0  0  0  0  0
  -19.5186   21.6955  -14.3178 C   0  0  0  0  0  0
  -20.4517   22.6967  -13.3711 S   0  0  0  0  0  0
  -19.0464   19.5787  -15.0966 C   0  0  0  0  0  0
  -19.6542   17.8781  -15.2960 C   0  0  0  0  0  0
  -18.9010   16.7064  -16.3831 C   0  0  0  0  0  0
  -17.7833   17.0971  -17.5292 C   0  0  0  0  0  0
  -16.9115   16.1761  -18.2786 C   0  0  0  0  0  0
  -17.2604   18.7201  -17.6641 C   0  0  0  0  0  0
  -17.8225   20.1844  -16.3553 C   0  0  0  0  0  0
  -21.2998   18.6206  -12.1630 S   0  0  0  0  0  0
  -20.2270   17.6904  -12.4568 O   0  0  0  0  0  0
  -21.5549   19.0759  -10.8088 O   0  0  0  0  0  0
  -22.7286   17.7815  -12.6564 N   0  0  0  0  0  0
  -23.6184   18.4559  -13.6449 C   0  0  0  0  0  0
  -25.0188   18.9254  -13.1229 C   0  0  0  0  0  0
  -25.0718   19.0769  -11.6505 N   0  0  0  0  0  0
  -24.2959   18.0536  -10.9610 C   0  0  0  0  0  0
  -23.5021   17.0312  -11.6589 C   0  0  0  0  0  0
  -25.7683   20.2135  -10.9862 C   0  0  0  0  0  0
  -25.8648   20.9707   -9.0515 C   0  0  0  0  0  0
  -26.1773   22.7321   -8.8410 C   0  0  0  0  0  0
  -26.0251   23.4450   -7.2891 Cl  0  0  0  0  0  0
  -26.5111   23.7235  -10.2476 C   0  0  0  0  0  0
  -26.5435   23.0694  -11.9017 C   0  0  0  0  0  0
  -26.1457   21.4049  -12.2975 C   0  0  0  0  0  0
  1  2  1  0  0  0
  2  3  1  0  0  0
  3  4  2  0  0  0
  3  5  1  0  0  0
  5  6  2  0  0  0
  5  9  1  0  0  0
  6  7  1  0  0  0
  6 17  1  0  0  0
  7  8  2  0  0  0
  7 10  1  0  0  0
  8  9  1  0  0  0
 10 11  2  0  0  0
 10 16  1  0  0  0
 11 12  1  0  0  0
 12 13  2  0  0  0
 13 14  1  0  0  0
 13 15  1  0  0  0
 15 16  2  0  0  0
 17 18  2  0  0  0
 17 19  2  0  0  0
 17 20  1  0  0  0
 20 21  1  0  0  0
 20 25  1  0  0  0
 21 22  1  0  0  0
 22 23  1  0  0  0
 23 24  1  0  0  0
 23 26  1  0  0  0
 24 25  1  0  0  0
 26 27  2  0  0  0
 26 32  1  0  0  0
 27 28  1  0  0  0
 28 29  1  0  0  0
 28 30  2  0  0  0
 30 31  1  0  0  0
 31 32  2  0  0  0
M  END
>  <CHROM.0>
39.11841575,66.04632237,75.80842168,63.59636984,-31.35707244,56.45919456
-38.58102239,-167.14307905

>  <CHROM.1>
4.04162845,166.68358330,-157.31362910,7.09266283,-10.43026618,-169.12347634
-22.25461969,20.24755753,-12.46264516,-2.53925086,-0.62671209,-2.84295486

>  <Name>
F3222-0429

>  <RI>
2.78429e+07

>  <Rbt.Current_Directory>
/home/adria/Escritorio/rDock_CMTR_LC/2pxcA_model/inputs_sah

>  <Rbt.Executable>
rbdock ($Id: //depot/dev/client3/rdock/2013.1/src/exe/rbdock.cxx#4 $)

>  <Rbt.Library>
libRbt.so (2013.1, Build901 2013/11/27)

>  <Rbt.Parameter_File>
/home/adria/Escritorio/rDock_2013.1_src/data/scripts/dock.prm

>  <Rbt.Receptor>
sah_rdock.prm

>  <SCORE>
-305.35

>  <SCORE.INTER>
-13.8953

>  <SCORE.INTER.CONST>
1

>  <SCORE.INTER.POLAR>
-0.721468

>  <SCORE.INTER.REPUL>
0.0012266

>  <SCORE.INTER.ROT>
6

>  <SCORE.INTER.VDW>
-22.8484

>  <SCORE.INTER.norm>
-0.434227

>  <SCORE.INTRA>
-288.475

>  <SCORE.INTRA.DIHEDRAL>
-24.1246

>  <SCORE.INTRA.DIHEDRAL.0>
29.1771

>  <SCORE.INTRA.POLAR>
0

>  <SCORE.INTRA.POLAR.0>
0

>  <SCORE.INTRA.REPUL>
0

>  <SCORE.INTRA.REPUL.0>
0

>  <SCORE.INTRA.VDW>
-276.413

>  <SCORE.INTRA.VDW.0>
275.184

>  <SCORE.INTRA.norm>
-9.01485

>  <SCORE.RESTR>
0

>  <SCORE.RESTR.CAVITY>
0

>  <SCORE.RESTR.norm>
0

>  <SCORE.SYSTEM>
-2.97962

>  <SCORE.SYSTEM.CONST>
0

>  <SCORE.SYSTEM.DIHEDRAL>
7.4014

>  <SCORE.SYSTEM.POLAR>
-3.61559

>  <SCORE.SYSTEM.REPUL>
0.126025

>  <SCORE.SYSTEM.VDW>
4.98255

>  <SCORE.SYSTEM.norm>
-0.0931133

>  <SCORE.heavy>
32

>  <SCORE.norm>
-9.54219

$$$$
F3222-0429
  rDOCK(R)          3D
libRbt.so/2013.1/901 2013/11/27
 32 35  0  0  0  0  0  0  0  0999 V2000
  -27.0215   19.9609  -15.0135 C   0  0  0  0  0  0
  -25.7901   19.7391  -15.7028 O   0  0  0  0  0  0
  -24.9490   18.7844  -15.1850 C   0  0  0  0  0  0
  -25.3271   17.9602  -14.3657 O   0  0  0  0  0  0
  -23.6159   18.9112  -15.7945 C   0  0  0  0  0  0
  -22.3030   18.8569  -15.2640 C   0  0  0  0  0  0
  -21.3234   18.9811  -16.3841 C   0  0  0  0  0  0
  -21.9442   19.1284  -17.5996 C   0  0  0  0  0  0
  -23.6061   19.1207  -17.5148 S   0  0  0  0  0  0
  -19.9072   18.7395  -16.5948 C   0  0  0  0  0  0
  -19.2576   17.2019  -15.8770 C   0  0  0  0  0  0
  -17.5391   16.7910  -15.8722 C   0  0  0  0  0  0
  -16.3982   17.5854  -16.7569 C   0  0  0  0  0  0
  -14.9348   17.5002  -16.6116 C   0  0  0  0  0  0
  -16.8666   18.9280  -17.7075 C   0  0  0  0  0  0
  -18.7510   19.7159  -17.6714 C   0  0  0  0  0  0
  -22.1066   18.6878  -13.4704 S   0  0  0  0  0  0
  -21.8272   17.2698  -13.3526 O   0  0  0  0  0  0
  -21.0939   19.6842  -13.1745 O   0  0  0  0  0  0
  -23.3822   18.9590  -12.3354 N   0  0  0  0  0  0
  -24.4184   19.9711  -12.6904 C   0  0  0  0  0  0
  -24.4376   21.2847  -11.8372 C   0  0  0  0  0  0
  -23.1554   21.5496  -11.1447 N   0  0  0  0  0  0
  -22.5242   20.3273  -10.6632 C   0  0  0  0  0  0
  -23.0738   18.9840  -10.8999 C   0  0  0  0  0  0
  -22.5602   22.9119  -11.0536 C   0  0  0  0  0  0
  -23.1040   24.7150  -10.1712 C   0  0  0  0  0  0
  -21.7950   25.8408   -9.6579 C   0  0  0  0  0  0
  -22.1785   27.2189   -8.7126 Cl  0  0  0  0  0  0
  -20.1263   25.4482  -10.0239 C   0  0  0  0  0  0
  -19.6512   23.9620  -10.8786 C   0  0  0  0  0  0
  -20.7844   22.7030  -11.3438 C   0  0  0  0  0  0
  1  2  1  0  0  0
  2  3  1  0  0  0
  3  4  2  0  0  0
  3  5  1  0  0  0
  5  6  2  0  0  0
  5  9  1  0  0  0
  6  7  1  0  0  0
  6 17  1  0  0  0
  7  8  2  0  0  0
  7 10  1  0  0  0
  8  9  1  0  0  0
 10 11  2  0  0  0
 10 16  1  0  0  0
 11 12  1  0  0  0
 12 13  2  0  0  0
 13 14  1  0  0  0
 13 15  1  0  0  0
 15 16  2  0  0  0
 17 18  2  0  0  0
 17 19  2  0  0  0
 17 20  1  0  0  0
 20 21  1  0  0  0
 20 25  1  0  0  0
 21 22  1  0  0  0
 22 23  1  0  0  0
 23 24  1  0  0  0
 23 26  1  0  0  0
 24 25  1  0  0  0
 26 27  2  0  0  0
 26 32  1  0  0  0
 27 28  1  0  0  0
 28 29  1  0  0  0
 28 30  2  0  0  0
 30 31  1  0  0  0
 31 32  2  0  0  0
M  END
>  <CHROM.0>
-62.21439789,-168.31159234,-131.72416283,-61.82665034,167.57995020,172.25484360
-157.38049052,-159.06579652

>  <CHROM.1>
15.55577665,137.05528617,100.33900018,42.65898008,-31.12408300,64.12188566
-21.90902267,20.39967219,-13.67665120,1.34440957,-0.09831251,-2.38458664

>  <Name>
F3222-0429

>  <RI>
2.78429e+07

>  <Rbt.Current_Directory>
/home/adria/Escritorio/rDock_CMTR_LC/2pxcA_model/inputs_sah

>  <Rbt.Executable>
rbdock ($Id: //depot/dev/client3/rdock/2013.1/src/exe/rbdock.cxx#4 $)

>  <Rbt.Library>
libRbt.so (2013.1, Build901 2013/11/27)

>  <Rbt.Parameter_File>
/home/adria/Escritorio/rDock_2013.1_src/data/scripts/dock.prm

>  <Rbt.Receptor>
sah_rdock.prm

>  <SCORE>
-291.38

>  <SCORE.INTER>
-11.4039

>  <SCORE.INTER.CONST>
1

>  <SCORE.INTER.POLAR>
0

>  <SCORE.INTER.REPUL>
0.0174543

>  <SCORE.INTER.ROT>
6

>  <SCORE.INTER.VDW>
-22.8911

>  <SCORE.INTER.norm>
-0.356371

>  <SCORE.INTRA>
-279.148

>  <SCORE.INTRA.DIHEDRAL>
-5.87061

>  <SCORE.INTRA.DIHEDRAL.0>
29.1771

>  <SCORE.INTRA.POLAR>
0

>  <SCORE.INTRA.POLAR.0>
0

>  <SCORE.INTRA.REPUL>
0

>  <SCORE.INTRA.REPUL.0>
0

>  <SCORE.INTRA.VDW>
-276.213

>  <SCORE.INTRA.VDW.0>
275.184

>  <SCORE.INTRA.norm>
-8.72337

>  <SCORE.RESTR>
0

>  <SCORE.RESTR.CAVITY>
0

>  <SCORE.RESTR.norm>
0

>  <SCORE.SYSTEM>
-0.828314

>  <SCORE.SYSTEM.CONST>
0

>  <SCORE.SYSTEM.DIHEDRAL>
6.58049

>  <SCORE.SYSTEM.POLAR>
-4.14583

>  <SCORE.SYSTEM.VDW>
9.97725

>  <SCORE.SYSTEM.norm>
-0.0258848

>  <SCORE.heavy>
32

>  <SCORE.norm>
-9.10563

$$$$
F3222-0429
  rDOCK(R)          3D
libRbt.so/2013.1/901 2013/11/27
 32 35  0  0  0  0  0  0  0  0999 V2000
  -21.3646   24.2606  -12.3936 C   0  0  0  0  0  0
  -20.6766   23.3369  -13.2387 O   0  0  0  0  0  0
  -20.9806   22.0061  -13.0856 C   0  0  0  0  0  0
  -21.8839   21.6254  -12.3558 O   0  0  0  0  0  0
  -20.1009   21.1924  -13.9393 C   0  0  0  0  0  0
  -19.8365   19.8018  -14.0048 C   0  0  0  0  0  0
  -18.8945   19.5414  -15.1338 C   0  0  0  0  0  0
  -18.5317   20.6964  -15.7809 C   0  0  0  0  0  0
  -19.2331   22.0700  -15.1560 S   0  0  0  0  0  0
  -18.4458   18.3971  -15.9068 C   0  0  0  0  0  0
  -19.1535   16.7955  -15.4216 C   0  0  0  0  0  0
  -18.6263   15.2586  -16.1158 C   0  0  0  0  0  0
  -17.6768   15.1293  -17.4565 C   0  0  0  0  0  0
  -16.9704   13.9304  -17.9396 C   0  0  0  0  0  0
  -17.1068   16.5529  -18.2144 C   0  0  0  0  0  0
  -17.3987   18.4207  -17.4404 C   0  0  0  0  0  0
  -20.6184   18.7192  -12.7798 S   0  0  0  0  0  0
  -19.7477   17.5610  -12.8346 O   0  0  0  0  0  0
  -20.6715   19.5691  -11.6046 O   0  0  0  0  0  0
  -22.2061   18.0585  -12.9572 N   0  0  0  0  0  0
  -23.1393   18.7467  -13.8949 C   0  0  0  0  0  0
  -24.3659   19.4794  -13.2525 C   0  0  0  0  0  0
  -24.1694   19.7999  -11.8199 N   0  0  0  0  0  0
  -23.4409   18.7533  -11.1140 C   0  0  0  0  0  0
  -22.9097   17.5505  -11.7725 C   0  0  0  0  0  0
  -24.5952   21.0962  -11.2228 C   0  0  0  0  0  0
  -26.0612   22.5123  -11.6366 C   0  0  0  0  0  0
  -26.7108   23.4898  -10.2701 C   0  0  0  0  0  0
  -28.0814   24.4906  -10.5144 Cl  0  0  0  0  0  0
  -26.0115   23.3116   -8.6727 C   0  0  0  0  0  0
  -24.6796   22.1848   -8.3240 C   0  0  0  0  0  0
  -24.0094   21.0747   -9.5089 C   0  0  0  0  0  0
  1  2  1  0  0  0
  2  3  1  0  0  0
  3  4  2  0  0  0
  3  5  1  0  0  0
  5  6  2  0  0  0
  5  9  1  0  0  0
  6  7  1  0  0  0
  6 17  1  0  0  0
  7  8  2  0  0  0
  7 10  1  0  0  0
  8  9  1  0  0  0
 10 11  2  0  0  0
 10 16  1  0  0  0
 11 12  1  0  0  0
 12 13  2  0  0  0
 13 14  1  0  0  0
 13 15  1  0  0  0
 15 16  2  0  0  0
 17 18  2  0  0  0
 17 19  2  0  0  0
 17 20  1  0  0  0
 20 21  1  0  0  0
 20 25  1  0  0  0
 21 22  1  0  0  0
 22 23  1  0  0  0
 23 24  1  0  0  0
 23 26  1  0  0  0
 24 25  1  0  0  0
 26 27  2  0  0  0
 26 32  1  0  0  0
 27 28  1  0  0  0
 28 29  1  0  0  0
 28 30  2  0  0  0
 30 31  1  0  0  0
 31 32  2  0  0  0
M  END
>  <CHROM.0>
-177.49520534,-173.37629308,-9.82296465,-62.71314258,32.30057891,-51.83863221
-37.65902511,-163.30889156

>  <CHROM.1>
6.76108265,167.88822622,-158.97626131,-1.18167676,-21.12538085,27.51835102
-21.68171533,20.10254942,-13.20530317,-2.58222021,-0.64259823,-3.11654608

>  <Name>
F3222-0429

>  <RI>
2.78429e+07

>  <Rbt.Current_Directory>
/home/adria/Escritorio/rDock_CMTR_LC/2pxcA_model/inputs_sah

>  <Rbt.Executable>
rbdock ($Id: //depot/dev/client3/rdock/2013.1/src/exe/rbdock.cxx#4 $)

>  <Rbt.Library>
libRbt.so (2013.1, Build901 2013/11/27)

>  <Rbt.Parameter_File>
/home/adria/Escritorio/rDock_2013.1_src/data/scripts/dock.prm

>  <Rbt.Receptor>
sah_rdock.prm

>  <SCORE>
-297.025

>  <SCORE.INTER>
-15.8048

>  <SCORE.INTER.CONST>
1

>  <SCORE.INTER.POLAR>
-0.824621

>  <SCORE.INTER.REPUL>
0.0135574

>  <SCORE.INTER.ROT>
6

>  <SCORE.INTER.VDW>
-24.4689

>  <SCORE.INTER.norm>
-0.493899

>  <SCORE.INTRA>
-287.792

>  <SCORE.INTRA.DIHEDRAL>
-24.3303

>  <SCORE.INTRA.DIHEDRAL.0>
29.1771

>  <SCORE.INTRA.POLAR>
0

>  <SCORE.INTRA.POLAR.0>
0

>  <SCORE.INTRA.REPUL>
0

>  <SCORE.INTRA.REPUL.0>
0

>  <SCORE.INTRA.VDW>
-275.626

>  <SCORE.INTRA.VDW.0>
275.184

>  <SCORE.INTRA.norm>
-8.99349

>  <SCORE.RESTR>
0.00270993

>  <SCORE.RESTR.CAVITY>
0.00270993

>  <SCORE.RESTR.norm>
8.46852e-05

>  <SCORE.SYSTEM>
6.56897

>  <SCORE.SYSTEM.CONST>
0

>  <SCORE.SYSTEM.DIHEDRAL>
8.47164

>  <SCORE.SYSTEM.POLAR>
-3.95073

>  <SCORE.SYSTEM.VDW>
15.7656

>  <SCORE.SYSTEM.norm>
0.20528

>  <SCORE.heavy>
32

>  <SCORE.norm>
-9.28202

$$$$
F3222-0429
  rDOCK(R)          3D
libRbt.so/2013.1/901 2013/11/27
 32 35  0  0  0  0  0  0  0  0999 V2000
  -22.6801   24.2281  -10.1071 C   0  0  0  0  0  0
  -23.1559   23.5082  -11.2455 O   0  0  0  0  0  0
  -24.1144   22.5500  -11.0213 C   0  0  0  0  0  0
  -24.6189   22.3801   -9.9213 O   0  0  0  0  0  0
  -24.4226   21.8496  -12.2780 C   0  0  0  0  0  0
  -23.7223   20.8821  -13.0404 C   0  0  0  0  0  0
  -24.5688   20.4763  -14.2017 C   0  0  0  0  0  0
  -25.7659   21.1476  -14.2280 C   0  0  0  0  0  0
  -25.9677   22.2190  -12.9708 S   0  0  0  0  0  0
  -24.6030   19.3961  -15.1714 C   0  0  0  0  0  0
  -22.9855   18.7277  -15.6596 C   0  0  0  0  0  0
  -22.7852   17.5279  -16.9411 C   0  0  0  0  0  0
  -24.0281   16.6801  -17.6135 C   0  0  0  0  0  0
  -23.9988   15.8798  -18.8499 C   0  0  0  0  0  0
  -25.6279   16.9965  -17.0976 C   0  0  0  0  0  0
  -26.1041   18.5046  -15.8045 C   0  0  0  0  0  0
  -22.0616   20.3986  -12.4995 S   0  0  0  0  0  0
  -22.2659   20.2473  -11.0719 O   0  0  0  0  0  0
  -21.7805   19.2549  -13.3475 O   0  0  0  0  0  0
  -20.6765   21.4263  -12.6178 N   0  0  0  0  0  0
  -20.4681   22.1591  -13.8998 C   0  0  0  0  0  0
  -19.2413   21.7185  -14.7687 C   0  0  0  0  0  0
  -18.7627   20.3530  -14.4525 N   0  0  0  0  0  0
  -18.8453   20.0540  -13.0283 C   0  0  0  0  0  0
  -19.4024   20.9853  -12.0359 C   0  0  0  0  0  0
  -18.3427   19.3870  -15.5055 C   0  0  0  0  0  0
  -16.8519   19.3238  -16.9544 C   0  0  0  0  0  0
  -16.2340   17.7125  -17.4707 C   0  0  0  0  0  0
  -14.8475   17.6134  -18.4745 Cl  0  0  0  0  0  0
  -16.9819   16.2585  -16.8388 C   0  0  0  0  0  0
  -18.3339   16.2945  -15.6831 C   0  0  0  0  0  0
  -18.9791   17.7724  -14.9867 C   0  0  0  0  0  0
  1  2  1  0  0  0
  2  3  1  0  0  0
  3  4  2  0  0  0
  3  5  1  0  0  0
  5  6  2  0  0  0
  5  9  1  0  0  0
  6  7  1  0  0  0
  6 17  1  0  0  0
  7  8  2  0  0  0
  7 10  1  0  0  0
  8  9  1  0  0  0
 10 11  2  0  0  0
 10 16  1  0  0  0
 11 12  1  0  0  0
 12 13  2  0  0  0
 13 14  1  0  0  0
 13 15  1  0  0  0
 15 16  2  0  0  0
 17 18  2  0  0  0
 17 19  2  0  0  0
 17 20  1  0  0  0
 20 21  1  0  0  0
 20 25  1  0  0  0
 21 22  1  0  0  0
 22 23  1  0  0  0
 23 24  1  0  0  0
 23 26  1  0  0  0
 24 25  1  0  0  0
 26 27  2  0  0  0
 26 32  1  0  0  0
 27 28  1  0  0  0
 28 29  1  0  0  0
 28 30  2  0  0  0
 30 31  1  0  0  0
 31 32  2  0  0  0
M  END
>  <CHROM.0>
39.18899345,67.97986735,-128.34025937,63.17760852,-30.79865741,-178.57287925
-157.74798197,-160.44715391

>  <CHROM.1>
5.40685932,74.23713516,44.17656678,-32.93482906,-45.51717927,62.36965141
-21.53988962,19.88009473,-14.34421248,-2.40436099,-0.02985797,-2.29484321

>  <Name>
F3222-0429

>  <RI>
2.78429e+07

>  <Rbt.Current_Directory>
/home/adria/Escritorio/rDock_CMTR_LC/2pxcA_model/inputs_sah

>  <Rbt.Executable>
rbdock ($Id: //depot/dev/client3/rdock/2013.1/src/exe/rbdock.cxx#4 $)

>  <Rbt.Library>
libRbt.so (2013.1, Build901 2013/11/27)

>  <Rbt.Parameter_File>
/home/adria/Escritorio/rDock_2013.1_src/data/scripts/dock.prm

>  <Rbt.Receptor>
sah_rdock.prm

>  <SCORE>
-290.213

>  <SCORE.INTER>
-6.87739

>  <SCORE.INTER.CONST>
1

>  <SCORE.INTER.POLAR>
0

>  <SCORE.INTER.REPUL>
0

>  <SCORE.INTER.ROT>
6

>  <SCORE.INTER.VDW>
-18.2774

>  <SCORE.INTER.norm>
-0.214919

>  <SCORE.INTRA>
-280.816

>  <SCORE.INTRA.DIHEDRAL>
-6.86345

>  <SCORE.INTRA.DIHEDRAL.0>
29.1771

>  <SCORE.INTRA.POLAR>
0

>  <SCORE.INTRA.POLAR.0>
0

>  <SCORE.INTRA.REPUL>
0

>  <SCORE.INTRA.REPUL.0>
0

>  <SCORE.INTRA.VDW>
-277.384

>  <SCORE.INTRA.VDW.0>
275.184

>  <SCORE.INTRA.norm>
-8.77549

>  <SCORE.RESTR>
0.0349935

>  <SCORE.RESTR.CAVITY>
0.0349935

>  <SCORE.RESTR.norm>
0.00109355

>  <SCORE.SYSTEM>
-2.55469

>  <SCORE.SYSTEM.CONST>
0

>  <SCORE.SYSTEM.DIHEDRAL>
10.8065

>  <SCORE.SYSTEM.POLAR>
-4.18873

>  <SCORE.SYSTEM.REPUL>
0.125804

>  <SCORE.SYSTEM.VDW>
5.65474

>  <SCORE.SYSTEM.norm>
-0.0798341

>  <SCORE.heavy>
32

>  <SCORE.norm>
-9.06915

$$$$
F3222-0429
  rDOCK(R)          3D
libRbt.so/2013.1/901 2013/11/27
 32 35  0  0  0  0  0  0  0  0999 V2000
  -25.5684   23.3592   -7.3291 C   0  0  0  0  0  0
  -26.1702   23.3815   -8.6244 O   0  0  0  0  0  0
  -25.4879   24.0410   -9.6176 C   0  0  0  0  0  0
  -24.6204   24.8662   -9.3729 O   0  0  0  0  0  0
  -25.9411   23.5653  -10.9342 C   0  0  0  0  0  0
  -25.2913   23.4241  -12.1855 C   0  0  0  0  0  0
  -26.2449   22.8143  -13.1594 C   0  0  0  0  0  0
  -27.4745   22.5747  -12.5978 C   0  0  0  0  0  0
  -27.5818   23.0102  -10.9953 S   0  0  0  0  0  0
  -26.1764   22.1681  -14.4578 C   0  0  0  0  0  0
  -26.5673   20.3937  -14.4736 C   0  0  0  0  0  0
  -26.3876   19.3796  -15.9093 C   0  0  0  0  0  0
  -26.1418   19.9675  -17.4290 C   0  0  0  0  0  0
  -25.7118   19.2150  -18.6201 C   0  0  0  0  0  0
  -25.9940   21.6565  -17.6554 C   0  0  0  0  0  0
  -25.9323   22.9872  -16.1067 C   0  0  0  0  0  0
  -23.5779   23.9954  -12.3339 S   0  0  0  0  0  0
  -23.3240   23.7540  -13.7410 O   0  0  0  0  0  0
  -23.6535   25.3429  -11.8005 O   0  0  0  0  0  0
  -22.2429   23.2442  -11.5326 N   0  0  0  0  0  0
  -20.8774   23.5082  -12.0708 C   0  0  0  0  0  0
  -20.1427   22.2996  -12.7442 C   0  0  0  0  0  0
  -21.0651   21.2272  -13.1835 N   0  0  0  0  0  0
  -22.1723   21.0355  -12.2551 C   0  0  0  0  0  0
  -22.3763   21.8617  -11.0557 C   0  0  0  0  0  0
  -20.9036   20.5124  -14.4801 C   0  0  0  0  0  0
  -19.4222   20.3900  -15.9348 C   0  0  0  0  0  0
  -19.3057   18.8776  -16.9063 C   0  0  0  0  0  0
  -17.9610   18.6313  -17.9413 Cl  0  0  0  0  0  0
  -20.5047   17.6176  -16.6888 C   0  0  0  0  0  0
  -21.8454   17.7534  -15.5273 C   0  0  0  0  0  0
  -22.0401   19.1031  -14.4200 C   0  0  0  0  0  0
  1  2  1  0  0  0
  2  3  1  0  0  0
  3  4  2  0  0  0
  3  5  1  0  0  0
  5  6  2  0  0  0
  5  9  1  0  0  0
  6  7  1  0  0  0
  6 17  1  0  0  0
  7  8  2  0  0  0
  7 10  1  0  0  0
  8  9  1  0  0  0
 10 11  2  0  0  0
 10 16  1  0  0  0
 11 12  1  0  0  0
 12 13  2  0  0  0
 13 14  1  0  0  0
 13 15  1  0  0  0
 15 16  2  0  0  0
 17 18  2  0  0  0
 17 19  2  0  0  0
 17 20  1  0  0  0
 20 21  1  0  0  0
 20 25  1  0  0  0
 21 22  1  0  0  0
 22 23  1  0  0  0
 23 24  1  0  0  0
 23 26  1  0  0  0
 24 25  1  0  0  0
 26 27  2  0  0  0
 26 32  1  0  0  0
 27 28  1  0  0  0
 28 29  1  0  0  0
 28 30  2  0  0  0
 30 31  1  0  0  0
 31 32  2  0  0  0
M  END
>  <CHROM.0>
175.72940682,66.96043595,-44.47502551,-62.36492889,-31.02784586,-178.80558791
-36.36646746,-162.70514743

>  <CHROM.1>
-19.42581231,-148.55221182,-176.76266053,111.50841362,160.29732046,11.47927752
-23.58639385,21.80398062,-13.47591145,-2.16944394,0.11393118,-2.11611125

>  <Name>
F3222-0429

>  <RI>
2.78429e+07

>  <Rbt.Current_Directory>
/home/adria/Escritorio/rDock_CMTR_LC/2pxcA_model/inputs_sah

>  <Rbt.Executable>
rbdock ($Id: //depot/dev/client3/rdock/2013.1/src/exe/rbdock.cxx#4 $)

>  <Rbt.Library>
libRbt.so (2013.1, Build901 2013/11/27)

>  <Rbt.Parameter_File>
/home/adria/Escritorio/rDock_2013.1_src/data/scripts/dock.prm

>  <Rbt.Receptor>
sah_rdock.prm

>  <SCORE>
-295.93

>  <SCORE.INTER>
-8.11172

>  <SCORE.INTER.CONST>
1

>  <SCORE.INTER.POLAR>
-1.05665

>  <SCORE.INTER.REPUL>
0.157772

>  <SCORE.INTER.ROT>
6

>  <SCORE.INTER.VDW>
-16.708

>  <SCORE.INTER.norm>
-0.253491

>  <SCORE.INTRA>
-281.927

>  <SCORE.INTRA.DIHEDRAL>
-10.4364

>  <SCORE.INTRA.DIHEDRAL.0>
29.1771

>  <SCORE.INTRA.POLAR>
0

>  <SCORE.INTRA.POLAR.0>
0

>  <SCORE.INTRA.REPUL>
0

>  <SCORE.INTRA.REPUL.0>
0

>  <SCORE.INTRA.VDW>
-276.709

>  <SCORE.INTRA.VDW.0>
275.184

>  <SCORE.INTRA.norm>
-8.81022

>  <SCORE.RESTR>
0.631645

>  <SCORE.RESTR.CAVITY>
0.631645

>  <SCORE.RESTR.norm>
0.0197389

>  <SCORE.SYSTEM>
-6.52238

>  <SCORE.SYSTEM.CONST>
0

>  <SCORE.SYSTEM.DIHEDRAL>
5.96155

>  <SCORE.SYSTEM.POLAR>
-3.67016

>  <SCORE.SYSTEM.VDW>
2.9754

>  <SCORE.SYSTEM.norm>
-0.203824

>  <SCORE.heavy>
32

>  <SCORE.norm>
-9.2478

$$$$
F3222-0429
  rDOCK(R)          3D
libRbt.so/2013.1/901 2013/11/27
 32 35  0  0  0  0  0  0  0  0999 V2000
  -22.1509   27.1835   -8.6027 C   0  0  0  0  0  0
  -21.2639   26.5244   -9.5079 O   0  0  0  0  0  0
  -21.7181   26.3205  -10.7882 C   0  0  0  0  0  0
  -22.3269   27.1807  -11.4069 O   0  0  0  0  0  0
  -21.3220   24.9808  -11.2501 C   0  0  0  0  0  0
  -21.9397   24.0319  -12.1021 C   0  0  0  0  0  0
  -21.0253   22.8630  -12.2673 C   0  0  0  0  0  0
  -19.8634   23.0106  -11.5512 C   0  0  0  0  0  0
  -19.7695   24.4390  -10.7027 S   0  0  0  0  0  0
  -20.8956   21.7281  -13.1636 C   0  0  0  0  0  0
  -22.3843   20.7040  -13.3544 C   0  0  0  0  0  0
  -22.4022   19.1888  -14.2632 C   0  0  0  0  0  0
  -21.1876   18.6985  -15.2631 C   0  0  0  0  0  0
  -20.9873   17.3558  -15.8350 C   0  0  0  0  0  0
  -19.7867   19.6688  -15.4106 C   0  0  0  0  0  0
  -19.4586   21.3326  -14.2717 C   0  0  0  0  0  0
  -23.5954   24.3991  -12.7408 S   0  0  0  0  0  0
  -23.4211   25.7633  -13.2005 O   0  0  0  0  0  0
  -23.8158   23.3100  -13.6743 O   0  0  0  0  0  0
  -25.0120   24.4680  -11.7522 N   0  0  0  0  0  0
  -24.9025   23.9637  -10.3531 C   0  0  0  0  0  0
  -25.6850   22.6487  -10.0178 C   0  0  0  0  0  0
  -26.0117   21.8423  -11.2165 N   0  0  0  0  0  0
  -26.3556   22.6722  -12.3643 C   0  0  0  0  0  0
  -26.3167   24.1421  -12.3421 C   0  0  0  0  0  0
  -25.8976   20.3575  -11.2392 C   0  0  0  0  0  0
  -25.3872   18.9281  -12.6611 C   0  0  0  0  0  0
  -24.6481   17.3871  -12.0922 C   0  0  0  0  0  0
  -23.9903   16.2864  -13.2305 Cl  0  0  0  0  0  0
  -24.4961   17.0863  -10.3720 C   0  0  0  0  0  0
  -25.0311   18.2518   -9.1390 C   0  0  0  0  0  0
  -25.6621   19.8469   -9.5173 C   0  0  0  0  0  0
  1  2  1  0  0  0
  2  3  1  0  0  0
  3  4  2  0  0  0
  3  5  1  0  0  0
  5  6  2  0  0  0
  5  9  1  0  0  0
  6  7  1  0  0  0
  6 17  1  0  0  0
  7  8  2  0  0  0
  7 10  1  0  0  0
  8  9  1  0  0  0
 10 11  2  0  0  0
 10 16  1  0  0  0
 11 12  1  0  0  0
 12 13  2  0  0  0
 13 14  1  0  0  0
 13 15  1  0  0  0
 15 16  2  0  0  0
 17 18  2  0  0  0
 17 19  2  0  0  0
 17 20  1  0  0  0
 20 21  1  0  0  0
 20 25  1  0  0  0
 21 22  1  0  0  0
 22 23  1  0  0  0
 23 24  1  0  0  0
 23 26  1  0  0  0
 24 25  1  0  0  0
 26 27  2  0  0  0
 26 32  1  0  0  0
 27 28  1  0  0  0
 28 29  1  0  0  0
 28 30  2  0  0  0
 30 31  1  0  0  0
 31 32  2  0  0  0
M  END
>  <CHROM.0>
-178.07385528,70.99716321,-129.12965312,-145.11475659,-32.14508304,-61.19819593
-156.06921387,-159.57602964

>  <CHROM.1>
42.67602272,146.31519336,47.53519857,-53.18057122,-11.20062846,-145.99042337
-23.04029142,22.10152976,-12.06647826,1.39117675,0.45155983,0.33910109

>  <Name>
F3222-0429

>  <RI>
2.78429e+07

>  <Rbt.Current_Directory>
/home/adria/Escritorio/rDock_CMTR_LC/2pxcA_model/inputs_sah

>  <Rbt.Executable>
rbdock ($Id: //depot/dev/client3/rdock/2013.1/src/exe/rbdock.cxx#4 $)

>  <Rbt.Library>
libRbt.so (2013.1, Build901 2013/11/27)

>  <Rbt.Parameter_File>
/home/adria/Escritorio/rDock_2013.1_src/data/scripts/dock.prm

>  <Rbt.Receptor>
sah_rdock.prm

>  <SCORE>
-289.941

>  <SCORE.INTER>
-7.8297

>  <SCORE.INTER.CONST>
1

>  <SCORE.INTER.POLAR>
-1.5737

>  <SCORE.INTER.REPUL>
0.0395973

>  <SCORE.INTER.ROT>
6

>  <SCORE.INTER.VDW>
-14.0771

>  <SCORE.INTER.norm>
-0.244678

>  <SCORE.INTRA>
-279.144

>  <SCORE.INTRA.DIHEDRAL>
-2.7246

>  <SCORE.INTRA.DIHEDRAL.0>
29.1771

>  <SCORE.INTRA.POLAR>
0

>  <SCORE.INTRA.POLAR.0>
0

>  <SCORE.INTRA.REPUL>
0

>  <SCORE.INTRA.REPUL.0>
0

>  <SCORE.INTRA.VDW>
-277.782

>  <SCORE.INTRA.VDW.0>
275.184

>  <SCORE.INTRA.norm>
-8.72324

>  <SCORE.RESTR>
0.00589562

>  <SCORE.RESTR.CAVITY>
0.00589562

>  <SCORE.RESTR.norm>
0.000184238

>  <SCORE.SYSTEM>
-2.97359

>  <SCORE.SYSTEM.CONST>
0

>  <SCORE.SYSTEM.DIHEDRAL>
13.5301

>  <SCORE.SYSTEM.POLAR>
-4.25176

>  <SCORE.SYSTEM.VDW>
4.71733

>  <SCORE.SYSTEM.norm>
-0.0929247

>  <SCORE.heavy>
32

>  <SCORE.norm>
-9.06066

$$$$
F3222-0429
  rDOCK(R)          3D
libRbt.so/2013.1/901 2013/11/27
 32 35  0  0  0  0  0  0  0  0999 V2000
  -21.5829   24.2549  -12.6259 C   0  0  0  0  0  0
  -20.7979   23.3288  -13.3786 O   0  0  0  0  0  0
  -21.0230   21.9926  -13.1525 C   0  0  0  0  0  0
  -21.9225   21.5989  -12.4251 O   0  0  0  0  0  0
  -20.0689   21.1877  -13.9314 C   0  0  0  0  0  0
  -19.7585   19.8051  -13.9456 C   0  0  0  0  0  0
  -18.7426   19.5485  -15.0095 C   0  0  0  0  0  0
  -18.3770   20.6990  -15.6632 C   0  0  0  0  0  0
  -19.1566   22.0637  -15.1163 S   0  0  0  0  0  0
  -18.2134   18.4013  -15.7250 C   0  0  0  0  0  0
  -19.0242   16.8138  -15.3730 C   0  0  0  0  0  0
  -18.4385   15.2712  -16.0049 C   0  0  0  0  0  0
  -17.3054   15.1315  -17.1931 C   0  0  0  0  0  0
  -16.5653   13.9196  -17.5849 C   0  0  0  0  0  0
  -16.5949   16.5476  -17.8378 C   0  0  0  0  0  0
  -16.9514   18.4139  -17.0875 C   0  0  0  0  0  0
  -20.5793   18.7272  -12.7420 S   0  0  0  0  0  0
  -19.7072   17.5690  -12.7642 O   0  0  0  0  0  0
  -20.6704   19.5818  -11.5726 O   0  0  0  0  0  0
  -22.1604   18.0653  -12.9679 N   0  0  0  0  0  0
  -23.0797   18.7771  -13.9017 C   0  0  0  0  0  0
  -24.3212   19.4853  -13.2605 C   0  0  0  0  0  0
  -24.1522   19.7640  -11.8157 N   0  0  0  0  0  0
  -23.4317   18.6999  -11.1278 C   0  0  0  0  0  0
  -22.8829   17.5195  -11.8118 C   0  0  0  0  0  0
  -24.5950   21.0402  -11.1884 C   0  0  0  0  0  0
  -25.9801   22.5211  -11.6512 C   0  0  0  0  0  0
  -26.7227   23.4461  -10.2956 C   0  0  0  0  0  0
  -28.0390   24.5006  -10.6041 Cl  0  0  0  0  0  0
  -26.1735   23.1634   -8.6552 C   0  0  0  0  0  0
  -24.9085   21.9789   -8.2531 C   0  0  0  0  0  0
  -24.1650   20.9114   -9.4335 C   0  0  0  0  0  0
  1  2  1  0  0  0
  2  3  1  0  0  0
  3  4  2  0  0  0
  3  5  1  0  0  0
  5  6  2  0  0  0
  5  9  1  0  0  0
  6  7  1  0  0  0
  6 17  1  0  0  0
  7  8  2  0  0  0
  7 10  1  0  0  0
  8  9  1  0  0  0
 10 11  2  0  0  0
 10 16  1  0  0  0
 11 12  1  0  0  0
 12 13  2  0  0  0
 13 14  1  0  0  0
 13 15  1  0  0  0
 15 16  2  0  0  0
 17 18  2  0  0  0
 17 19  2  0  0  0
 17 20  1  0  0  0
 20 21  1  0  0  0
 20 25  1  0  0  0
 21 22  1  0  0  0
 22 23  1  0  0  0
 23 24  1  0  0  0
 23 26  1  0  0  0
 24 25  1  0  0  0
 26 27  2  0  0  0
 26 32  1  0  0  0
 27 28  1  0  0  0
 28 29  1  0  0  0
 28 30  2  0  0  0
 30 31  1  0  0  0
 31 32  2  0  0  0
M  END
>  <CHROM.0>
-175.94384115,-165.38204917,-42.05874646,-59.30454901,168.26568672,-176.28957846
-157.65208588,-159.17304330

>  <CHROM.1>
5.75623262,171.17013166,-161.64080813,5.19396836,-23.22571510,22.85340210
-21.61798906,20.08482934,-13.16378114,-2.63267452,-0.63544758,3.09921389

>  <Name>
F3222-0429

>  <RI>
2.78429e+07

>  <Rbt.Current_Directory>
/home/adria/Escritorio/rDock_CMTR_LC/2pxcA_model/inputs_sah

>  <Rbt.Executable>
rbdock ($Id: //depot/dev/client3/rdock/2013.1/src/exe/rbdock.cxx#4 $)

>  <Rbt.Library>
libRbt.so (2013.1, Build901 2013/11/27)

>  <Rbt.Parameter_File>
/home/adria/Escritorio/rDock_2013.1_src/data/scripts/dock.prm

>  <Rbt.Receptor>
sah_rdock.prm

>  <SCORE>
-304.518

>  <SCORE.INTER>
-15.6024

>  <SCORE.INTER.CONST>
1

>  <SCORE.INTER.POLAR>
-0.824621

>  <SCORE.INTER.REPUL>
0

>  <SCORE.INTER.ROT>
6

>  <SCORE.INTER.VDW>
-24.1986

>  <SCORE.INTER.norm>
-0.487574

>  <SCORE.INTRA>
-288.253

>  <SCORE.INTRA.DIHEDRAL>
-24.9186

>  <SCORE.INTRA.DIHEDRAL.0>
29.1771

>  <SCORE.INTRA.POLAR>
0

>  <SCORE.INTRA.POLAR.0>
0

>  <SCORE.INTRA.REPUL>
0

>  <SCORE.INTRA.REPUL.0>
0

>  <SCORE.INTRA.VDW>
-275.794

>  <SCORE.INTRA.VDW.0>
275.184

>  <SCORE.INTRA.norm>
-9.00791

>  <SCORE.RESTR>
0.03879

>  <SCORE.RESTR.CAVITY>
0.03879

>  <SCORE.RESTR.norm>
0.00121219

>  <SCORE.SYSTEM>
-0.701359

>  <SCORE.SYSTEM.CONST>
0

>  <SCORE.SYSTEM.DIHEDRAL>
4.22227

>  <SCORE.SYSTEM.POLAR>
-3.61429

>  <SCORE.SYSTEM.VDW>
9.47608

>  <SCORE.SYSTEM.norm>
-0.0219175

>  <SCORE.heavy>
32

>  <SCORE.norm>
-9.51619

$$$$
F3222-0429
  rDOCK(R)          3D
libRbt.so/2013.1/901 2013/11/27
 32 35  0  0  0  0  0  0  0  0999 V2000
  -25.8499   23.2157   -8.2828 C   0  0  0  0  0  0
  -24.8305   22.7281   -9.1567 O   0  0  0  0  0  0
  -23.7128   23.5120   -9.3094 C   0  0  0  0  0  0
  -23.5770   24.5728   -8.7181 O   0  0  0  0  0  0
  -22.7640   22.8549  -10.2220 C   0  0  0  0  0  0
  -22.3657   21.5057  -10.3924 C   0  0  0  0  0  0
  -21.4108   21.4244  -11.5376 C   0  0  0  0  0  0
  -21.1670   22.6548  -12.0954 C   0  0  0  0  0  0
  -21.9946   23.9022  -11.3686 S   0  0  0  0  0  0
  -20.8582   20.3910  -12.3948 C   0  0  0  0  0  0
  -21.6869   18.7761  -12.3122 C   0  0  0  0  0  0
  -21.0825   17.3387  -13.1433 C   0  0  0  0  0  0
  -19.9051   17.3663  -14.2959 C   0  0  0  0  0  0
  -19.1545   16.2191  -14.8349 C   0  0  0  0  0  0
  -19.1660   18.8559  -14.6967 C   0  0  0  0  0  0
  -19.5450   20.5938  -13.6923 C   0  0  0  0  0  0
  -23.0295   20.2627   -9.2530 S   0  0  0  0  0  0
  -22.0333   19.2156   -9.3707 O   0  0  0  0  0  0
  -23.1871   21.0206   -8.0255 O   0  0  0  0  0  0
  -24.5311   19.4413   -9.4972 N   0  0  0  0  0  0
  -24.5145   18.2069  -10.3337 C   0  0  0  0  0  0
  -25.2331   18.2910  -11.7232 C   0  0  0  0  0  0
  -25.3946   19.6792  -12.2135 N   0  0  0  0  0  0
  -25.6890   20.6155  -11.1360 C   0  0  0  0  0  0
  -25.7520   20.2265   -9.7192 C   0  0  0  0  0  0
  -25.1785   20.0564  -13.6380 C   0  0  0  0  0  0
  -25.1786   19.0497  -15.4580 C   0  0  0  0  0  0
  -25.6306   19.9691  -16.9396 C   0  0  0  0  0  0
  -25.8814   19.1350  -18.4165 Cl  0  0  0  0  0  0
  -25.9324   21.6921  -16.8275 C   0  0  0  0  0  0
  -25.8267   22.5913  -15.2961 C   0  0  0  0  0  0
  -25.5155   21.8331  -13.7425 C   0  0  0  0  0  0
  1  2  1  0  0  0
  2  3  1  0  0  0
  3  4  2  0  0  0
  3  5  1  0  0  0
  5  6  2  0  0  0
  5  9  1  0  0  0
  6  7  1  0  0  0
  6 17  1  0  0  0
  7  8  2  0  0  0
  7 10  1  0  0  0
  8  9  1  0  0  0
 10 11  2  0  0  0
 10 16  1  0  0  0
 11 12  1  0  0  0
 12 13  2  0  0  0
 13 14  1  0  0  0
 13 15  1  0  0  0
 15 16  2  0  0  0
 17 18  2  0  0  0
 17 19  2  0  0  0
 17 20  1  0  0  0
 20 21  1  0  0  0
 20 25  1  0  0  0
 21 22  1  0  0  0
 22 23  1  0  0  0
 23 24  1  0  0  0
 23 26  1  0  0  0
 24 25  1  0  0  0
 26 27  2  0  0  0
 26 32  1  0  0  0
 27 28  1  0  0  0
 28 29  1  0  0  0
 28 30  2  0  0  0
 30 31  1  0  0  0
 31 32  2  0  0  0
M  END
>  <CHROM.0>
-60.56247459,67.14470033,71.31009674,65.17426026,-29.33777329,-55.88088546
-35.80095217,-159.94168221

>  <CHROM.1>
0.84932996,-39.44736242,-157.66528857,13.08063818,86.42654737,21.58732254
-23.43781258,20.59963632,-12.16779496,1.49905796,-0.48464197,1.13583095

>  <Name>
F3222-0429

>  <RI>
2.78429e+07

>  <Rbt.Current_Directory>
/home/adria/Escritorio/rDock_CMTR_LC/2pxcA_model/inputs_sah

>  <Rbt.Executable>
rbdock ($Id: //depot/dev/client3/rdock/2013.1/src/exe/rbdock.cxx#4 $)

>  <Rbt.Library>
libRbt.so (2013.1, Build901 2013/11/27)

>  <Rbt.Parameter_File>
/home/adria/Escritorio/rDock_2013.1_src/data/scripts/dock.prm

>  <Rbt.Receptor>
sah_rdock.prm

>  <SCORE>
-303.611

>  <SCORE.INTER>
-9.14849

>  <SCORE.INTER.CONST>
1

>  <SCORE.INTER.POLAR>
-1.25325

>  <SCORE.INTER.REPUL>
0.431899

>  <SCORE.INTER.ROT>
6

>  <SCORE.INTER.VDW>
-18.4469

>  <SCORE.INTER.norm>
-0.28589

>  <SCORE.INTRA>
-287.155

>  <SCORE.INTRA.DIHEDRAL>
-20.3662

>  <SCORE.INTRA.DIHEDRAL.0>
29.1771

>  <SCORE.INTRA.POLAR>
0

>  <SCORE.INTRA.POLAR.0>
0

>  <SCORE.INTRA.REPUL>
0

>  <SCORE.INTRA.REPUL.0>
0

>  <SCORE.INTRA.VDW>
-276.972

>  <SCORE.INTRA.VDW.0>
275.184

>  <SCORE.INTRA.norm>
-8.97359

>  <SCORE.RESTR>
0

>  <SCORE.RESTR.CAVITY>
0

>  <SCORE.RESTR.norm>
0

>  <SCORE.SYSTEM>
-7.3075

>  <SCORE.SYSTEM.CONST>
0

>  <SCORE.SYSTEM.DIHEDRAL>
6.28148

>  <SCORE.SYSTEM.POLAR>
-3.76241

>  <SCORE.SYSTEM.VDW>
2.34396

>  <SCORE.SYSTEM.norm>
-0.228359

>  <SCORE.heavy>
32

>  <SCORE.norm>
-9.48784

$$$$
F3222-0429
  rDOCK(R)          3D
libRbt.so/2013.1/901 2013/11/27
 32 35  0  0  0  0  0  0  0  0999 V2000
  -24.7673   20.7278  -10.3986 C   0  0  0  0  0  0
  -23.8304   20.3028  -11.3897 O   0  0  0  0  0  0
  -22.8179   19.4722  -10.9750 C   0  0  0  0  0  0
  -22.6842   19.1440   -9.8055 O   0  0  0  0  0  0
  -22.0119   19.0526  -12.1322 C   0  0  0  0  0  0
  -20.8248   19.5601  -12.7164 C   0  0  0  0  0  0
  -20.4229   18.6697  -13.8458 C   0  0  0  0  0  0
  -21.3018   17.6301  -14.0222 C   0  0  0  0  0  0
  -22.5665   17.6235  -12.9406 S   0  0  0  0  0  0
  -19.2381   18.4385  -14.6527 C   0  0  0  0  0  0
  -18.0221   19.7885  -14.6670 C   0  0  0  0  0  0
  -16.5927   19.7874  -15.7057 C   0  0  0  0  0  0
  -16.0547   18.4678  -16.5332 C   0  0  0  0  0  0
  -15.0587   18.4377  -17.6181 C   0  0  0  0  0  0
  -16.9429   17.0088  -16.4435 C   0  0  0  0  0  0
  -18.7466   16.8587  -15.4962 C   0  0  0  0  0  0
  -20.1146   21.0824  -12.0367 S   0  0  0  0  0  0
  -20.7935   21.1605  -10.7578 O   0  0  0  0  0  0
  -18.6891   20.8234  -12.1204 O   0  0  0  0  0  0
  -20.3522   22.6468  -12.7332 N   0  0  0  0  0  0
  -20.1014   23.8338  -11.8660 C   0  0  0  0  0  0
  -21.3528   24.6856  -11.4630 C   0  0  0  0  0  0
  -22.6280   23.9417  -11.5821 N   0  0  0  0  0  0
  -22.6420   23.0492  -12.7344 C   0  0  0  0  0  0
  -21.4918   22.8676  -13.6326 C   0  0  0  0  0  0
  -23.7140   24.0451  -10.5681 C   0  0  0  0  0  0
  -25.7870   23.8783  -10.5889 C   0  0  0  0  0  0
  -26.6115   23.3197   -9.0880 C   0  0  0  0  0  0
  -28.2818   22.9343   -9.1264 Cl  0  0  0  0  0  0
  -25.6698   23.0557   -7.6333 C   0  0  0  0  0  0
  -23.9091   23.3021   -7.5673 C   0  0  0  0  0  0
  -22.9336   23.7288   -8.9644 C   0  0  0  0  0  0
  1  2  1  0  0  0
  2  3  1  0  0  0
  3  4  2  0  0  0
  3  5  1  0  0  0
  5  6  2  0  0  0
  5  9  1  0  0  0
  6  7  1  0  0  0
  6 17  1  0  0  0
  7  8  2  0  0  0
  7 10  1  0  0  0
  8  9  1  0  0  0
 10 11  2  0  0  0
 10 16  1  0  0  0
 11 12  1  0  0  0
 12 13  2  0  0  0
 13 14  1  0  0  0
 13 15  1  0  0  0
 15 16  2  0  0  0
 17 18  2  0  0  0
 17 19  2  0  0  0
 17 20  1  0  0  0
 20 21  1  0  0  0
 20 25  1  0  0  0
 21 22  1  0  0  0
 22 23  1  0  0  0
 23 24  1  0  0  0
 23 26  1  0  0  0
 24 25  1  0  0  0
 26 27  2  0  0  0
 26 32  1  0  0  0
 27 28  1  0  0  0
 28 29  1  0  0  0
 28 30  2  0  0  0
 30 31  1  0  0  0
 31 32  2  0  0  0
M  END
>  <CHROM.0>
-57.00522102,65.83257769,-44.57973262,151.29030855,-30.00199466,64.41250616
-156.52062361,-168.90662691

>  <CHROM.1>
-2.64053824,93.81000017,16.56260471,-20.05993935,160.67487596,150.78752160
-21.75647630,20.90745899,-12.10105037,2.54723858,0.49410691,0.32188170

>  <Name>
F3222-0429

>  <RI>
2.78429e+07

>  <Rbt.Current_Directory>
/home/adria/Escritorio/rDock_CMTR_LC/2pxcA_model/inputs_sah

>  <Rbt.Executable>
rbdock ($Id: //depot/dev/client3/rdock/2013.1/src/exe/rbdock.cxx#4 $)

>  <Rbt.Library>
libRbt.so (2013.1, Build901 2013/11/27)

>  <Rbt.Parameter_File>
/home/adria/Escritorio/rDock_2013.1_src/data/scripts/dock.prm

>  <Rbt.Receptor>
sah_rdock.prm

>  <SCORE>
-299.321

>  <SCORE.INTER>
-13.4226

>  <SCORE.INTER.CONST>
1

>  <SCORE.INTER.POLAR>
-0.61965

>  <SCORE.INTER.REPUL>
0.264631

>  <SCORE.INTER.ROT>
6

>  <SCORE.INTER.VDW>
-24.0389

>  <SCORE.INTER.norm>
-0.419455

>  <SCORE.INTRA>
-282.777

>  <SCORE.INTRA.DIHEDRAL>
-8.24562

>  <SCORE.INTRA.DIHEDRAL.0>
29.1771

>  <SCORE.INTRA.POLAR>
0

>  <SCORE.INTRA.POLAR.0>
0

>  <SCORE.INTRA.REPUL>
0

>  <SCORE.INTRA.REPUL.0>
0

>  <SCORE.INTRA.VDW>
-278.654

>  <SCORE.INTRA.VDW.0>
275.184

>  <SCORE.INTRA.norm>
-8.83679

>  <SCORE.RESTR>
0.816918

>  <SCORE.RESTR.CAVITY>
0.816918

>  <SCORE.RESTR.norm>
0.0255287

>  <SCORE.SYSTEM>
-3.93838

>  <SCORE.SYSTEM.CONST>
0

>  <SCORE.SYSTEM.DIHEDRAL>
9.14569

>  <SCORE.SYSTEM.POLAR>
-3.73538

>  <SCORE.SYSTEM.VDW>
4.18906

>  <SCORE.SYSTEM.norm>
-0.123074

>  <SCORE.heavy>
32

>  <SCORE.norm>
-9.35379

$$$$
F3222-0429
  rDOCK(R)          3D
libRbt.so/2013.1/901 2013/11/27
 32 35  0  0  0  0  0  0  0  0999 V2000
  -21.3871   24.2912  -12.5710 C   0  0  0  0  0  0
  -20.6349   23.3655  -13.3571 O   0  0  0  0  0  0
  -20.9053   22.0308  -13.1768 C   0  0  0  0  0  0
  -21.7809   21.6414  -12.4185 O   0  0  0  0  0  0
  -20.0298   21.2237  -14.0412 C   0  0  0  0  0  0
  -19.8147   19.8285  -14.1635 C   0  0  0  0  0  0
  -18.8481   19.5839  -15.2750 C   0  0  0  0  0  0
  -18.4231   20.7524  -15.8568 C   0  0  0  0  0  0
  -19.0928   22.1219  -15.1896 S   0  0  0  0  0  0
  -18.4178   18.4596  -16.0869 C   0  0  0  0  0  0
  -19.2310   16.8749  -15.7277 C   0  0  0  0  0  0
  -18.7467   15.3507  -16.4789 C   0  0  0  0  0  0
  -17.7350   15.2417  -17.7751 C   0  0  0  0  0  0
  -17.0659   14.0337  -18.2880 C   0  0  0  0  0  0
  -17.0536   16.6705  -18.4230 C   0  0  0  0  0  0
  -17.2907   18.5078  -17.5621 C   0  0  0  0  0  0
  -20.6737   18.7220  -13.0137 S   0  0  0  0  0  0
  -19.9224   17.4948  -13.1934 O   0  0  0  0  0  0
  -20.6186   19.4658  -11.7688 O   0  0  0  0  0  0
  -22.3220   18.2352  -13.2008 N   0  0  0  0  0  0
  -23.2821   19.2416  -13.7384 C   0  0  0  0  0  0
  -24.3705   19.7737  -12.7453 C   0  0  0  0  0  0
  -24.0044   19.5852  -11.3226 N   0  0  0  0  0  0
  -23.3013   18.3290  -11.0943 C   0  0  0  0  0  0
  -22.9441   17.3932  -12.1710 C   0  0  0  0  0  0
  -24.2553   20.6247  -10.2859 C   0  0  0  0  0  0
  -23.4899   21.0587   -8.4013 C   0  0  0  0  0  0
  -23.5087   22.7730   -7.8487 C   0  0  0  0  0  0
  -22.6749   23.2161   -6.4175 Cl  0  0  0  0  0  0
  -24.2742   23.9933   -8.8475 C   0  0  0  0  0  0
  -25.0338   23.6202  -10.4124 C   0  0  0  0  0  0
  -25.0016   22.0283  -11.1542 C   0  0  0  0  0  0
  1  2  1  0  0  0
  2  3  1  0  0  0
  3  4  2  0  0  0
  3  5  1  0  0  0
  5  6  2  0  0  0
  5  9  1  0  0  0
  6  7  1  0  0  0
  6 17  1  0  0  0
  7  8  2  0  0  0
  7 10  1  0  0  0
  8  9  1  0  0  0
 10 11  2  0  0  0
 10 16  1  0  0  0
 11 12  1  0  0  0
 12 13  2  0  0  0
 13 14  1  0  0  0
 13 15  1  0  0  0
 15 16  2  0  0  0
 17 18  2  0  0  0
 17 19  2  0  0  0
 17 20  1  0  0  0
 20 21  1  0  0  0
 20 25  1  0  0  0
 21 22  1  0  0  0
 22 23  1  0  0  0
 23 24  1  0  0  0
 23 26  1  0  0  0
 24 25  1  0  0  0
 26 27  2  0  0  0
 26 32  1  0  0  0
 27 28  1  0  0  0
 28 29  1  0  0  0
 28 30  2  0  0  0
 30 31  1  0  0  0
 31 32  2  0  0  0
M  END
>  <CHROM.0>
-58.91828192,-72.27845807,110.55136214,64.33266453,-28.90629001,-58.81308596
82.72660177,-161.45091015

>  <CHROM.1>
2.65293917,173.72787622,-164.22793799,0.39534836,-36.51081548,-158.92403147
-21.11687855,20.05158354,-12.93911129,-2.40526239,-0.85444855,-2.87710365

>  <Name>
F3222-0429

>  <RI>
2.78429e+07

>  <Rbt.Current_Directory>
/home/adria/Escritorio/rDock_CMTR_LC/2pxcA_model/inputs_sah

>  <Rbt.Executable>
rbdock ($Id: //depot/dev/client3/rdock/2013.1/src/exe/rbdock.cxx#4 $)

>  <Rbt.Library>
libRbt.so (2013.1, Build901 2013/11/27)

>  <Rbt.Parameter_File>
/home/adria/Escritorio/rDock_2013.1_src/data/scripts/dock.prm

>  <Rbt.Receptor>
sah_rdock.prm

>  <SCORE>
-312.016

>  <SCORE.INTER>
-16.3479

>  <SCORE.INTER.CONST>
1

>  <SCORE.INTER.POLAR>
-0.824621

>  <SCORE.INTER.REPUL>
0.276086

>  <SCORE.INTER.ROT>
6

>  <SCORE.INTER.VDW>
-26.3246

>  <SCORE.INTER.norm>
-0.510871

>  <SCORE.INTRA>
-288.382

>  <SCORE.INTRA.DIHEDRAL>
-26.1847

>  <SCORE.INTRA.DIHEDRAL.0>
29.1771

>  <SCORE.INTRA.POLAR>
0

>  <SCORE.INTRA.POLAR.0>
0

>  <SCORE.INTRA.REPUL>
0

>  <SCORE.INTRA.REPUL.0>
0

>  <SCORE.INTRA.VDW>
-275.29

>  <SCORE.INTRA.VDW.0>
275.184

>  <SCORE.INTRA.norm>
-9.01194

>  <SCORE.RESTR>
0

>  <SCORE.RESTR.CAVITY>
0

>  <SCORE.RESTR.norm>
0

>  <SCORE.SYSTEM>
-7.2861

>  <SCORE.SYSTEM.CONST>
0

>  <SCORE.SYSTEM.DIHEDRAL>
9.62727

>  <SCORE.SYSTEM.POLAR>
-4.59677

>  <SCORE.SYSTEM.REPUL>
0.0372216

>  <SCORE.SYSTEM.VDW>
3.34317

>  <SCORE.SYSTEM.norm>
-0.22769

>  <SCORE.heavy>
32

>  <SCORE.norm>
-9.7505

$$$$
F3222-0429
  rDOCK(R)          3D
libRbt.so/2013.1/901 2013/11/27
 32 35  0  0  0  0  0  0  0  0999 V2000
  -26.3537   18.4016  -14.4782 C   0  0  0  0  0  0
  -25.0788   18.3397  -15.1195 O   0  0  0  0  0  0
  -23.9748   18.2596  -14.3059 C   0  0  0  0  0  0
  -24.0672   18.0802  -13.1007 O   0  0  0  0  0  0
  -22.7508   18.3806  -15.1133 C   0  0  0  0  0  0
  -21.4668   18.9169  -14.8453 C   0  0  0  0  0  0
  -20.5921   18.6950  -16.0350 C   0  0  0  0  0  0
  -21.2572   18.0596  -17.0540 C   0  0  0  0  0  0
  -22.8426   17.6959  -16.7028 S   0  0  0  0  0  0
  -19.1722   18.7292  -16.3366 C   0  0  0  0  0  0
  -18.5786   17.4382  -17.4690 C   0  0  0  0  0  0
  -16.8687   17.1943  -17.8414 C   0  0  0  0  0  0
  -15.6783   18.2660  -17.4542 C   0  0  0  0  0  0
  -14.2240   18.0320  -17.4725 C   0  0  0  0  0  0
  -16.0839   19.6864  -16.5919 C   0  0  0  0  0  0
  -17.9554   20.0477  -15.8570 C   0  0  0  0  0  0
  -21.1879   19.7215  -13.2456 S   0  0  0  0  0  0
  -22.5239   20.1899  -12.9319 O   0  0  0  0  0  0
  -20.5570   18.6665  -12.4742 O   0  0  0  0  0  0
  -20.1936   21.1200  -13.0350 N   0  0  0  0  0  0
  -19.9664   21.6020  -11.6422 C   0  0  0  0  0  0
  -20.6194   22.9733  -11.2588 C   0  0  0  0  0  0
  -21.7455   23.3510  -12.1436 N   0  0  0  0  0  0
  -21.5104   22.9707  -13.5309 C   0  0  0  0  0  0
  -20.3166   22.2381  -13.9790 C   0  0  0  0  0  0
  -23.0016   23.9614  -11.6261 C   0  0  0  0  0  0
  -24.8763   24.3974  -12.4143 C   0  0  0  0  0  0
  -26.2885   24.4089  -11.2963 C   0  0  0  0  0  0
  -27.8772   24.5208  -11.9314 Cl  0  0  0  0  0  0
  -26.0305   24.1789   -9.5778 C   0  0  0  0  0  0
  -24.4188   23.9163   -8.8720 C   0  0  0  0  0  0
  -22.9528   23.7584   -9.8268 C   0  0  0  0  0  0
  1  2  1  0  0  0
  2  3  1  0  0  0
  3  4  2  0  0  0
  3  5  1  0  0  0
  5  6  2  0  0  0
  5  9  1  0  0  0
  6  7  1  0  0  0
  6 17  1  0  0  0
  7  8  2  0  0  0
  7 10  1  0  0  0
  8  9  1  0  0  0
 10 11  2  0  0  0
 10 16  1  0  0  0
 11 12  1  0  0  0
 12 13  2  0  0  0
 13 14  1  0  0  0
 13 15  1  0  0  0
 15 16  2  0  0  0
 17 18  2  0  0  0
 17 19  2  0  0  0
 17 20  1  0  0  0
 20 21  1  0  0  0
 20 25  1  0  0  0
 21 22  1  0  0  0
 22 23  1  0  0  0
 23 24  1  0  0  0
 23 26  1  0  0  0
 24 25  1  0  0  0
 26 27  2  0  0  0
 26 32  1  0  0  0
 27 28  1  0  0  0
 28 29  1  0  0  0
 28 30  2  0  0  0
 30 31  1  0  0  0
 31 32  2  0  0  0
M  END
>  <CHROM.0>
-60.08593420,-78.39797993,-9.44905712,59.52679034,24.87280286,58.60580049
-156.03544407,-163.30100151

>  <CHROM.1>
8.96324417,148.50609248,-27.95689049,141.09016434,-174.96366211,-169.94936741
-21.92763517,20.52241606,-13.89080961,2.35343025,0.10251863,0.68297298

>  <Name>
F3222-0429

>  <RI>
2.78429e+07

>  <Rbt.Current_Directory>
/home/adria/Escritorio/rDock_CMTR_LC/2pxcA_model/inputs_sah

>  <Rbt.Executable>
rbdock ($Id: //depot/dev/client3/rdock/2013.1/src/exe/rbdock.cxx#4 $)

>  <Rbt.Library>
libRbt.so (2013.1, Build901 2013/11/27)

>  <Rbt.Parameter_File>
/home/adria/Escritorio/rDock_2013.1_src/data/scripts/dock.prm

>  <Rbt.Receptor>
sah_rdock.prm

>  <SCORE>
-289.333

>  <SCORE.INTER>
-10.0903

>  <SCORE.INTER.CONST>
1

>  <SCORE.INTER.POLAR>
0

>  <SCORE.INTER.REPUL>
0.0773101

>  <SCORE.INTER.ROT>
6

>  <SCORE.INTER.VDW>
-21.8768

>  <SCORE.INTER.norm>
-0.315321

>  <SCORE.INTRA>
-283.621

>  <SCORE.INTRA.DIHEDRAL>
-18.8573

>  <SCORE.INTRA.DIHEDRAL.0>
29.1771

>  <SCORE.INTRA.POLAR>
0

>  <SCORE.INTRA.POLAR.0>
0

>  <SCORE.INTRA.REPUL>
0

>  <SCORE.INTRA.REPUL.0>
0

>  <SCORE.INTRA.VDW>
-274.192

>  <SCORE.INTRA.VDW.0>
275.184

>  <SCORE.INTRA.norm>
-8.86315

>  <SCORE.RESTR>
0

>  <SCORE.RESTR.CAVITY>
0

>  <SCORE.RESTR.norm>
0

>  <SCORE.SYSTEM>
4.37754

>  <SCORE.SYSTEM.CONST>
0

>  <SCORE.SYSTEM.DIHEDRAL>
11.1269

>  <SCORE.SYSTEM.POLAR>
-4.54829

>  <SCORE.SYSTEM.REPUL>
0.0467177

>  <SCORE.SYSTEM.VDW>
14.0447

>  <SCORE.SYSTEM.norm>
0.136798

>  <SCORE.heavy>
32

>  <SCORE.norm>
-9.04167

$$$$
F3222-0429
  rDOCK(R)          3D
libRbt.so/2013.1/901 2013/11/27
 32 35  0  0  0  0  0  0  0  0999 V2000
  -22.0496   23.9402  -12.9279 C   0  0  0  0  0  0
  -21.1485   23.0990  -13.6498 O   0  0  0  0  0  0
  -21.2842   21.7435  -13.4733 C   0  0  0  0  0  0
  -22.2358   21.2570  -12.8806 O   0  0  0  0  0  0
  -20.1669   21.0418  -14.1245 C   0  0  0  0  0  0
  -19.7750   19.6806  -14.1661 C   0  0  0  0  0  0
  -18.5828   19.5477  -15.0554 C   0  0  0  0  0  0
  -18.1844   20.7565  -15.5697 C   0  0  0  0  0  0
  -19.1255   22.0403  -15.0848 S   0  0  0  0  0  0
  -17.8733   18.4793  -15.7361 C   0  0  0  0  0  0
  -16.2895   18.9467  -16.4940 C   0  0  0  0  0  0
  -15.3444   17.8497  -17.5066 C   0  0  0  0  0  0
  -15.6298   16.2314  -17.6295 C   0  0  0  0  0  0
  -15.0882   15.3019  -18.6358 C   0  0  0  0  0  0
  -16.9477   15.5506  -16.7779 C   0  0  0  0  0  0
  -18.3053   16.6730  -15.7435 C   0  0  0  0  0  0
  -20.7170   18.4842  -13.1836 S   0  0  0  0  0  0
  -19.8071   17.3553  -13.1708 O   0  0  0  0  0  0
  -21.0062   19.2348  -11.9757 O   0  0  0  0  0  0
  -22.2234   17.8023  -13.6882 N   0  0  0  0  0  0
  -23.0717   18.6095  -14.6116 C   0  0  0  0  0  0
  -24.4147   19.1644  -14.0263 C   0  0  0  0  0  0
  -24.4235   19.2296  -12.5466 N   0  0  0  0  0  0
  -23.7253   18.1035  -11.9393 C   0  0  0  0  0  0
  -23.0383   17.0614  -12.7168 C   0  0  0  0  0  0
  -25.0043   20.3790  -11.7985 C   0  0  0  0  0  0
  -25.1757   20.9143   -9.7960 C   0  0  0  0  0  0
  -25.2411   22.6669   -9.3856 C   0  0  0  0  0  0
  -25.1370   23.1629   -7.7476 Cl  0  0  0  0  0  0
  -25.2840   23.8541  -10.6746 C   0  0  0  0  0  0
  -25.2514   23.4083  -12.3966 C   0  0  0  0  0  0
  -25.0695   21.7583  -12.9709 C   0  0  0  0  0  0
  1  2  1  0  0  0
  2  3  1  0  0  0
  3  4  2  0  0  0
  3  5  1  0  0  0
  5  6  2  0  0  0
  5  9  1  0  0  0
  6  7  1  0  0  0
  6 17  1  0  0  0
  7  8  2  0  0  0
  7 10  1  0  0  0
  8  9  1  0  0  0
 10 11  2  0  0  0
 10 16  1  0  0  0
 11 12  1  0  0  0
 12 13  2  0  0  0
 13 14  1  0  0  0
 13 15  1  0  0  0
 15 16  2  0  0  0
 17 18  2  0  0  0
 17 19  2  0  0  0
 17 20  1  0  0  0
 20 21  1  0  0  0
 20 25  1  0  0  0
 21 22  1  0  0  0
 22 23  1  0  0  0
 23 24  1  0  0  0
 23 26  1  0  0  0
 24 25  1  0  0  0
 26 27  2  0  0  0
 26 32  1  0  0  0
 27 28  1  0  0  0
 28 29  1  0  0  0
 28 30  2  0  0  0
 30 31  1  0  0  0
 31 32  2  0  0  0
M  END
>  <CHROM.0>
-63.13280143,63.30962217,72.79912281,61.31575088,-30.01107940,-55.77346003
-156.10652932,-166.10943734

>  <CHROM.1>
9.87692713,174.77951724,-163.86300431,-170.84815752,-27.44783814,-177.51023538
-21.24862605,19.97058436,-13.44241746,-2.61593322,-0.61980396,-3.01032221

>  <Name>
F3222-0429

>  <RI>
2.78429e+07

>  <Rbt.Current_Directory>
/home/adria/Escritorio/rDock_CMTR_LC/2pxcA_model/inputs_sah

>  <Rbt.Executable>
rbdock ($Id: //depot/dev/client3/rdock/2013.1/src/exe/rbdock.cxx#4 $)

>  <Rbt.Library>
libRbt.so (2013.1, Build901 2013/11/27)

>  <Rbt.Parameter_File>
/home/adria/Escritorio/rDock_2013.1_src/data/scripts/dock.prm

>  <Rbt.Receptor>
sah_rdock.prm

>  <SCORE>
-311.598

>  <SCORE.INTER>
-16.6334

>  <SCORE.INTER.CONST>
1

>  <SCORE.INTER.POLAR>
-0.824621

>  <SCORE.INTER.REPUL>
0.00168712

>  <SCORE.INTER.ROT>
6

>  <SCORE.INTER.VDW>
-25.2381

>  <SCORE.INTER.norm>
-0.519794

>  <SCORE.INTRA>
-287.359

>  <SCORE.INTRA.DIHEDRAL>
-24.5379

>  <SCORE.INTRA.DIHEDRAL.0>
29.1771

>  <SCORE.INTRA.POLAR>
0

>  <SCORE.INTRA.POLAR.0>
0

>  <SCORE.INTRA.REPUL>
0

>  <SCORE.INTRA.REPUL.0>
0

>  <SCORE.INTRA.VDW>
-275.09

>  <SCORE.INTRA.VDW.0>
275.184

>  <SCORE.INTRA.norm>
-8.97996

>  <SCORE.RESTR>
0

>  <SCORE.RESTR.CAVITY>
0

>  <SCORE.RESTR.norm>
0

>  <SCORE.SYSTEM>
-7.6059

>  <SCORE.SYSTEM.CONST>
0

>  <SCORE.SYSTEM.DIHEDRAL>
5.65285

>  <SCORE.SYSTEM.POLAR>
-3.82583

>  <SCORE.SYSTEM.VDW>
2.57551

>  <SCORE.SYSTEM.norm>
-0.237684

>  <SCORE.heavy>
32

>  <SCORE.norm>
-9.73744

$$$$
F3222-0429
  rDOCK(R)          3D
libRbt.so/2013.1/901 2013/11/27
 32 35  0  0  0  0  0  0  0  0999 V2000
  -22.8642   19.9449   -9.9835 C   0  0  0  0  0  0
  -22.9862   21.3653  -10.0748 O   0  0  0  0  0  0
  -24.1358   21.8569  -10.6438 C   0  0  0  0  0  0
  -24.7762   22.7649  -10.1351 O   0  0  0  0  0  0
  -24.4026   21.1587  -11.9112 C   0  0  0  0  0  0
  -23.5709   20.7590  -12.9866 C   0  0  0  0  0  0
  -24.3948   20.0130  -13.9837 C   0  0  0  0  0  0
  -25.7124   19.9308  -13.6073 C   0  0  0  0  0  0
  -26.0464   20.6650  -12.1517 S   0  0  0  0  0  0
  -24.1627   19.1309  -15.1134 C   0  0  0  0  0  0
  -25.6545   18.4988  -15.9358 C   0  0  0  0  0  0
  -25.6068   17.2880  -17.2217 C   0  0  0  0  0  0
  -24.2323   16.8298  -18.0068 C   0  0  0  0  0  0
  -24.0496   15.6568  -18.8789 C   0  0  0  0  0  0
  -22.7363   17.5114  -17.5345 C   0  0  0  0  0  0
  -22.5344   18.7456  -15.9193 C   0  0  0  0  0  0
  -21.8205   21.2262  -12.9395 S   0  0  0  0  0  0
  -21.4505   21.0633  -14.3321 O   0  0  0  0  0  0
  -21.8666   22.5372  -12.3188 O   0  0  0  0  0  0
  -20.6128   20.3380  -12.0786 N   0  0  0  0  0  0
  -19.2323   20.9012  -12.0480 C   0  0  0  0  0  0
  -18.1341   20.1105  -12.8371 C   0  0  0  0  0  0
  -18.6929   19.2174  -13.8782 N   0  0  0  0  0  0
  -19.9407   18.5919  -13.4586 C   0  0  0  0  0  0
  -20.5951   18.8726  -12.1719 C   0  0  0  0  0  0
  -18.0755   19.0730  -15.2259 C   0  0  0  0  0  0
  -16.4096   19.8618  -16.1894 C   0  0  0  0  0  0
  -15.6216   18.8744  -17.4734 C   0  0  0  0  0  0
  -14.1137   19.3684  -18.1231 Cl  0  0  0  0  0  0
  -16.3435   17.3518  -17.9562 C   0  0  0  0  0  0
  -17.8325   16.7149  -17.2199 C   0  0  0  0  0  0
  -18.6616   17.4880  -15.8781 C   0  0  0  0  0  0
  1  2  1  0  0  0
  2  3  1  0  0  0
  3  4  2  0  0  0
  3  5  1  0  0  0
  5  6  2  0  0  0
  5  9  1  0  0  0
  6  7  1  0  0  0
  6 17  1  0  0  0
  7  8  2  0  0  0
  7 10  1  0  0  0
  8  9  1  0  0  0
 10 11  2  0  0  0
 10 16  1  0  0  0
 11 12  1  0  0  0
 12 13  2  0  0  0
 13 14  1  0  0  0
 13 15  1  0  0  0
 15 16  2  0  0  0
 17 18  2  0  0  0
 17 19  2  0  0  0
 17 20  1  0  0  0
 20 21  1  0  0  0
 20 25  1  0  0  0
 21 22  1  0  0  0
 22 23  1  0  0  0
 23 24  1  0  0  0
 23 26  1  0  0  0
 24 25  1  0  0  0
 26 27  2  0  0  0
 26 32  1  0  0  0
 27 28  1  0  0  0
 28 29  1  0  0  0
 28 30  2  0  0  0
 30 31  1  0  0  0
 31 32  2  0  0  0
M  END
>  <CHROM.0>
39.92629730,64.33216046,73.81140416,-60.33657527,-30.38519003,-61.82388842
-156.76628009,-158.67181817

>  <CHROM.1>
133.09529447,-42.43166262,-161.44880023,178.82762730,-175.52932311,0.94573560
-21.34120654,19.64216886,-14.27229046,-2.55954137,-0.10520051,-2.14224408

>  <Name>
F3222-0429

>  <RI>
2.78429e+07

>  <Rbt.Current_Directory>
/home/adria/Escritorio/rDock_CMTR_LC/2pxcA_model/inputs_sah

>  <Rbt.Executable>
rbdock ($Id: //depot/dev/client3/rdock/2013.1/src/exe/rbdock.cxx#4 $)

>  <Rbt.Library>
libRbt.so (2013.1, Build901 2013/11/27)

>  <Rbt.Parameter_File>
/home/adria/Escritorio/rDock_2013.1_src/data/scripts/dock.prm

>  <Rbt.Receptor>
sah_rdock.prm

>  <SCORE>
-288.307

>  <SCORE.INTER>
-6.08001

>  <SCORE.INTER.CONST>
1

>  <SCORE.INTER.POLAR>
0

>  <SCORE.INTER.REPUL>
0.132145

>  <SCORE.INTER.ROT>
6

>  <SCORE.INTER.VDW>
-18.1407

>  <SCORE.INTER.norm>
-0.19

>  <SCORE.INTRA>
-279.238

>  <SCORE.INTRA.DIHEDRAL>
-8.10322

>  <SCORE.INTRA.DIHEDRAL.0>
29.1771

>  <SCORE.INTRA.POLAR>
0

>  <SCORE.INTRA.POLAR.0>
0

>  <SCORE.INTRA.REPUL>
0

>  <SCORE.INTRA.REPUL.0>
0

>  <SCORE.INTRA.VDW>
-275.186

>  <SCORE.INTRA.VDW.0>
275.184

>  <SCORE.INTRA.norm>
-8.72618

>  <SCORE.RESTR>
0.00684067

>  <SCORE.RESTR.CAVITY>
0.00684067

>  <SCORE.RESTR.norm>
0.000213771

>  <SCORE.SYSTEM>
-2.99627

>  <SCORE.SYSTEM.CONST>
0

>  <SCORE.SYSTEM.DIHEDRAL>
7.70158

>  <SCORE.SYSTEM.POLAR>
-3.75263

>  <SCORE.SYSTEM.REPUL>
0.123436

>  <SCORE.SYSTEM.VDW>
5.2947

>  <SCORE.SYSTEM.norm>
-0.0936336

>  <SCORE.heavy>
32

>  <SCORE.norm>
-9.0096

$$$$
F3222-0429
  rDOCK(R)          3D
libRbt.so/2013.1/901 2013/11/27
 32 35  0  0  0  0  0  0  0  0999 V2000
  -25.6365   17.5739  -13.5864 C   0  0  0  0  0  0
  -24.4645   17.5632  -14.4031 O   0  0  0  0  0  0
  -23.8030   18.7568  -14.5600 C   0  0  0  0  0  0
  -24.2153   19.7979  -14.0705 O   0  0  0  0  0  0
  -22.5720   18.5460  -15.3378 C   0  0  0  0  0  0
  -21.3350   17.9236  -15.0371 C   0  0  0  0  0  0
  -20.4732   17.9464  -16.2563 C   0  0  0  0  0  0
  -21.0909   18.5661  -17.3142 C   0  0  0  0  0  0
  -22.6241   19.1162  -16.9736 S   0  0  0  0  0  0
  -19.2701   17.2824  -16.7251 C   0  0  0  0  0  0
  -17.7021   18.0351  -16.1996 C   0  0  0  0  0  0
  -16.1269   17.4903  -16.7860 C   0  0  0  0  0  0
  -15.8864   16.0871  -17.6159 C   0  0  0  0  0  0
  -14.6860   15.6898  -18.3716 C   0  0  0  0  0  0
  -17.2323   15.1018  -17.9946 C   0  0  0  0  0  0
  -19.1618   15.6596  -17.6217 C   0  0  0  0  0  0
  -21.0714   17.3026  -13.3551 S   0  0  0  0  0  0
  -22.4343   17.0323  -12.9404 O   0  0  0  0  0  0
  -20.1194   16.2279  -13.5675 O   0  0  0  0  0  0
  -20.4243   18.2597  -12.0690 N   0  0  0  0  0  0
  -21.3116   18.5407  -10.9039 C   0  0  0  0  0  0
  -21.7822   20.0237  -10.7216 C   0  0  0  0  0  0
  -21.6915   20.8218  -11.9660 N   0  0  0  0  0  0
  -20.5181   20.4778  -12.7593 C   0  0  0  0  0  0
  -19.5736   19.4131  -12.3892 C   0  0  0  0  0  0
  -22.7473   21.7885  -12.3770 C   0  0  0  0  0  0
  -24.7639   22.0587  -11.9454 C   0  0  0  0  0  0
  -25.4372   23.7271  -12.0322 C   0  0  0  0  0  0
  -27.0211   24.0379  -11.4540 Cl  0  0  0  0  0  0
  -24.4196   25.0404  -12.5914 C   0  0  0  0  0  0
  -22.7228   24.8071  -13.0721 C   0  0  0  0  0  0
  -21.8755   23.2743  -12.9370 C   0  0  0  0  0  0
  1  2  1  0  0  0
  2  3  1  0  0  0
  3  4  2  0  0  0
  3  5  1  0  0  0
  5  6  2  0  0  0
  5  9  1  0  0  0
  6  7  1  0  0  0
  6 17  1  0  0  0
  7  8  2  0  0  0
  7 10  1  0  0  0
  8  9  1  0  0  0
 10 11  2  0  0  0
 10 16  1  0  0  0
 11 12  1  0  0  0
 12 13  2  0  0  0
 13 14  1  0  0  0
 13 15  1  0  0  0
 15 16  2  0  0  0
 17 18  2  0  0  0
 17 19  2  0  0  0
 17 20  1  0  0  0
 20 21  1  0  0  0
 20 25  1  0  0  0
 21 22  1  0  0  0
 22 23  1  0  0  0
 23 24  1  0  0  0
 23 26  1  0  0  0
 24 25  1  0  0  0
 26 27  2  0  0  0
 26 32  1  0  0  0
 27 28  1  0  0  0
 28 29  1  0  0  0
 28 30  2  0  0  0
 30 31  1  0  0  0
 31 32  2  0  0  0
M  END
>  <CHROM.0>
-179.24461985,-76.61140507,-128.66717564,-62.83205011,30.43040756,-60.74660437
83.84744183,-165.56423910

>  <CHROM.1>
-2.69999663,-71.70698581,27.04354527,-85.36589404,115.47181075,-21.64396685
-21.69249717,19.28212417,-14.15120784,2.30952431,0.11929983,0.53069300

>  <Name>
F3222-0429

>  <RI>
2.78429e+07

>  <Rbt.Current_Directory>
/home/adria/Escritorio/rDock_CMTR_LC/2pxcA_model/inputs_sah

>  <Rbt.Executable>
rbdock ($Id: //depot/dev/client3/rdock/2013.1/src/exe/rbdock.cxx#4 $)

>  <Rbt.Library>
libRbt.so (2013.1, Build901 2013/11/27)

>  <Rbt.Parameter_File>
/home/adria/Escritorio/rDock_2013.1_src/data/scripts/dock.prm

>  <Rbt.Receptor>
sah_rdock.prm

>  <SCORE>
-283.198

>  <SCORE.INTER>
-11.0941

>  <SCORE.INTER.CONST>
1

>  <SCORE.INTER.POLAR>
-0.654837

>  <SCORE.INTER.REPUL>
0.0536242

>  <SCORE.INTER.ROT>
6

>  <SCORE.INTER.VDW>
-20.5358

>  <SCORE.INTER.norm>
-0.346691

>  <SCORE.INTRA>
-277.491

>  <SCORE.INTRA.DIHEDRAL>
1.23756

>  <SCORE.INTRA.DIHEDRAL.0>
29.1771

>  <SCORE.INTRA.POLAR>
0

>  <SCORE.INTRA.POLAR.0>
0

>  <SCORE.INTRA.REPUL>
0

>  <SCORE.INTRA.REPUL.0>
0

>  <SCORE.INTRA.VDW>
-278.11

>  <SCORE.INTRA.VDW.0>
275.184

>  <SCORE.INTRA.norm>
-8.67159

>  <SCORE.RESTR>
0.0330289

>  <SCORE.RESTR.CAVITY>
0.0330289

>  <SCORE.RESTR.norm>
0.00103215

>  <SCORE.SYSTEM>
5.35389

>  <SCORE.SYSTEM.CONST>
0

>  <SCORE.SYSTEM.DIHEDRAL>
9.78669

>  <SCORE.SYSTEM.POLAR>
-4.29618

>  <SCORE.SYSTEM.REPUL>
0.044337

>  <SCORE.SYSTEM.VDW>
14.8459

>  <SCORE.SYSTEM.norm>
0.167309

>  <SCORE.heavy>
32

>  <SCORE.norm>
-8.84994

$$$$
