F3285-1602
  rDOCK(R)          3D
libRbt.so/2013.1/901 2013/11/27
 26 28  0  0  0  0  0  0  0  0999 V2000
  -22.9097   18.6886  -14.7816 C   0  0  0  0  0  0
  -21.9096   19.5261  -15.4197 O   0  0  0  0  0  0
  -20.7051   19.7080  -14.7197 C   0  0  0  0  0  0
  -19.3874   19.1458  -15.2472 C   0  0  0  0  0  0
  -19.7739   18.7856  -16.5746 O   0  0  0  0  0  0
  -18.7315   18.6386  -17.4740 C   0  0  0  0  0  0
  -18.1288   17.4184  -16.9684 C   0  0  0  0  0  0
  -16.8943   16.9794  -18.2113 C   0  0  0  0  0  0
  -16.3507   15.3500  -18.3929 C   0  0  0  0  0  0
  -17.0212   14.0635  -17.4081 C   0  0  0  0  0  0
  -18.2709   14.3845  -16.1206 C   0  0  0  0  0  0
  -18.9113   16.1014  -15.9000 C   0  0  0  0  0  0
  -17.8174   19.2543  -14.6192 C   0  0  0  0  0  0
  -15.5611   19.7894  -16.0940 Br  0  0  0  0  0  0
  -18.2458   20.0133  -13.2777 C   0  0  0  0  0  0
  -19.5531   20.7018  -12.9274 C   0  0  0  0  0  0
  -19.8031   21.6231  -11.7677 C   0  0  0  0  0  0
  -20.8885   22.1780  -11.3201 N   0  0  0  0  0  0
  -22.0629   21.8222  -11.8687 N   0  0  0  0  0  0
  -22.8733   22.6473  -12.5758 C   0  0  0  0  0  0
  -22.5207   23.8810  -12.8692 N   0  0  0  0  0  0
  -23.5432   24.5269  -13.5323 C   0  0  0  0  0  0
  -24.6718   23.7749  -13.7640 C   0  0  0  0  0  0
  -24.4592   22.2089  -13.1086 S   0  0  0  0  0  0
  -20.7251   20.5715  -13.6559 C   0  0  0  0  0  0
  -22.4516   20.9100  -11.6468 H   0  0  0  0  0  0
  1  2  1  0  0  0
  2  3  1  0  0  0
  3  4  2  0  0  0
  3 25  1  0  0  0
  4  5  1  0  0  0
  4 13  1  0  0  0
  5  6  1  0  0  0
  6  7  1  0  0  0
  7  8  2  0  0  0
  7 12  1  0  0  0
  8  9  1  0  0  0
  9 10  2  0  0  0
 10 11  1  0  0  0
 11 12  2  0  0  0
 13 14  1  0  0  0
 13 15  2  0  0  0
 15 16  1  0  0  0
 16 17  1  0  0  0
 16 25  2  0  0  0
 17 18  2  0  0  0
 18 19  1  0  0  0
 19 20  1  0  0  0
 19 26  1  0  0  0
 20 21  2  0  0  0
 20 24  1  0  0  0
 21 22  1  0  0  0
 22 23  2  0  0  0
 23 24  1  0  0  0
M  END
>  <CHROM.0>
-62.27980568,63.21616526,-8.33294213,64.03016841,168.06353811,177.21023222
83.72209359,-159.23109582

>  <CHROM.1>
113.25550382,160.08156972,70.38657327,171.80353553,-173.95882670,-115.19218040
4.85644085,-19.59222722,19.81300367,-14.88661294,2.35629363,0.14135747,0.50597926

>  <Name>
F3285-1602

>  <RI>
2.18832e+07

>  <Rbt.Current_Directory>
/home/adria/Escritorio/rDock_CMTR_LC/2pxcA_model/inputs_sah

>  <Rbt.Executable>
rbdock ($Id: //depot/dev/client3/rdock/2013.1/src/exe/rbdock.cxx#4 $)

>  <Rbt.Library>
libRbt.so (2013.1, Build901 2013/11/27)

>  <Rbt.Parameter_File>
/home/adria/Escritorio/rDock_2013.1_src/data/scripts/dock.prm

>  <Rbt.Receptor>
sah_rdock.prm

>  <SCORE>
-273.509

>  <SCORE.INTER>
-6.57448

>  <SCORE.INTER.CONST>
1

>  <SCORE.INTER.POLAR>
0

>  <SCORE.INTER.REPUL>
0

>  <SCORE.INTER.ROT>
7

>  <SCORE.INTER.VDW>
-18.9745

>  <SCORE.INTER.norm>
-0.262979

>  <SCORE.INTRA>
-264.924

>  <SCORE.INTRA.DIHEDRAL>
-4.2517

>  <SCORE.INTRA.DIHEDRAL.0>
16.6465

>  <SCORE.INTRA.POLAR>
0

>  <SCORE.INTRA.POLAR.0>
0

>  <SCORE.INTRA.REPUL>
-0.00203294

>  <SCORE.INTRA.REPUL.0>
0.00203294

>  <SCORE.INTRA.VDW>
-262.788

>  <SCORE.INTRA.VDW.0>
261.865

>  <SCORE.INTRA.norm>
-10.597

>  <SCORE.RESTR>
0

>  <SCORE.RESTR.CAVITY>
0

>  <SCORE.RESTR.norm>
0

>  <SCORE.SYSTEM>
-2.01102

>  <SCORE.SYSTEM.CONST>
0

>  <SCORE.SYSTEM.DIHEDRAL>
6.11008

>  <SCORE.SYSTEM.POLAR>
-4.21783

>  <SCORE.SYSTEM.VDW>
9.27457

>  <SCORE.SYSTEM.norm>
-0.0804407

>  <SCORE.heavy>
25

>  <SCORE.norm>
-10.9404

$$$$
F3285-1602
  rDOCK(R)          3D
libRbt.so/2013.1/901 2013/11/27
 26 28  0  0  0  0  0  0  0  0999 V2000
  -25.6727   20.1386  -15.0464 C   0  0  0  0  0  0
  -25.7188   20.6358  -13.6827 O   0  0  0  0  0  0
  -24.6079   21.3782  -13.2483 C   0  0  0  0  0  0
  -23.3555   20.6914  -12.7095 C   0  0  0  0  0  0
  -23.6170   19.3404  -13.0933 O   0  0  0  0  0  0
  -22.5311   18.4844  -13.0192 C   0  0  0  0  0  0
  -22.7785   17.6573  -14.1864 C   0  0  0  0  0  0
  -21.7152   18.3588  -15.4667 C   0  0  0  0  0  0
  -22.0738   18.1419  -17.1424 C   0  0  0  0  0  0
  -23.5118   17.2763  -17.6495 C   0  0  0  0  0  0
  -24.6587   16.5231  -16.4496 C   0  0  0  0  0  0
  -24.3432   16.7464  -14.6448 C   0  0  0  0  0  0
  -21.8922   21.3479  -12.1627 C   0  0  0  0  0  0
  -19.3969   20.3823  -12.7901 Br  0  0  0  0  0  0
  -22.3535   22.8736  -12.2987 C   0  0  0  0  0  0
  -23.5487   23.4650  -13.0248 C   0  0  0  0  0  0
  -23.7820   24.9143  -13.3435 C   0  0  0  0  0  0
  -23.0924   25.9820  -13.0775 N   0  0  0  0  0  0
  -21.8783   25.8377  -12.5190 N   0  0  0  0  0  0
  -21.6509   25.5604  -11.2118 C   0  0  0  0  0  0
  -22.6376   25.3654  -10.3627 N   0  0  0  0  0  0
  -22.1431   25.1685   -9.0903 C   0  0  0  0  0  0
  -20.7725   25.1923   -8.9733 C   0  0  0  0  0  0
  -20.0737   25.4957  -10.5052 S   0  0  0  0  0  0
  -24.6147   22.7233  -13.5094 C   0  0  0  0  0  0
  -21.0553   26.0704  -13.0676 H   0  0  0  0  0  0
  1  2  1  0  0  0
  2  3  1  0  0  0
  3  4  2  0  0  0
  3 25  1  0  0  0
  4  5  1  0  0  0
  4 13  1  0  0  0
  5  6  1  0  0  0
  6  7  1  0  0  0
  7  8  2  0  0  0
  7 12  1  0  0  0
  8  9  1  0  0  0
  9 10  2  0  0  0
 10 11  1  0  0  0
 11 12  2  0  0  0
 13 14  1  0  0  0
 13 15  2  0  0  0
 15 16  1  0  0  0
 16 17  1  0  0  0
 16 25  2  0  0  0
 17 18  2  0  0  0
 18 19  1  0  0  0
 19 20  1  0  0  0
 19 26  1  0  0  0
 20 21  2  0  0  0
 20 24  1  0  0  0
 21 22  1  0  0  0
 22 23  2  0  0  0
 23 24  1  0  0  0
M  END
>  <CHROM.0>
-173.92452506,-71.66960748,17.02975352,66.46024090,-29.93666300,67.67395777
-156.88577760,-158.13708575

>  <CHROM.1>
-83.94526193,166.06140099,-143.00039263,98.44519832,-1.76185593,-77.55345276
2.05752934,-22.23835301,21.57399278,-12.99577495,1.80635645,0.31240959,-2.66481424

>  <Name>
F3285-1602

>  <RI>
2.18832e+07

>  <Rbt.Current_Directory>
/home/adria/Escritorio/rDock_CMTR_LC/2pxcA_model/inputs_sah

>  <Rbt.Executable>
rbdock ($Id: //depot/dev/client3/rdock/2013.1/src/exe/rbdock.cxx#4 $)

>  <Rbt.Library>
libRbt.so (2013.1, Build901 2013/11/27)

>  <Rbt.Parameter_File>
/home/adria/Escritorio/rDock_2013.1_src/data/scripts/dock.prm

>  <Rbt.Receptor>
sah_rdock.prm

>  <SCORE>
-289.191

>  <SCORE.INTER>
-18.0838

>  <SCORE.INTER.CONST>
1

>  <SCORE.INTER.POLAR>
-2.13322

>  <SCORE.INTER.REPUL>
0

>  <SCORE.INTER.ROT>
7

>  <SCORE.INTER.VDW>
-23.2308

>  <SCORE.INTER.norm>
-0.723351

>  <SCORE.INTRA>
-264.946

>  <SCORE.INTRA.DIHEDRAL>
0.479355

>  <SCORE.INTRA.DIHEDRAL.0>
16.6465

>  <SCORE.INTRA.POLAR>
0

>  <SCORE.INTRA.POLAR.0>
0

>  <SCORE.INTRA.REPUL>
-0.00203294

>  <SCORE.INTRA.REPUL.0>
0.00203294

>  <SCORE.INTRA.VDW>
-265.175

>  <SCORE.INTRA.VDW.0>
261.865

>  <SCORE.INTRA.norm>
-10.5978

>  <SCORE.RESTR>
0

>  <SCORE.RESTR.CAVITY>
0

>  <SCORE.RESTR.norm>
0

>  <SCORE.SYSTEM>
-6.16147

>  <SCORE.SYSTEM.CONST>
0

>  <SCORE.SYSTEM.DIHEDRAL>
9.55303

>  <SCORE.SYSTEM.POLAR>
-4.2923

>  <SCORE.SYSTEM.REPUL>
0.0360737

>  <SCORE.SYSTEM.VDW>
3.47545

>  <SCORE.SYSTEM.norm>
-0.246459

>  <SCORE.heavy>
25

>  <SCORE.norm>
-11.5676

$$$$
F3285-1602
  rDOCK(R)          3D
libRbt.so/2013.1/901 2013/11/27
 26 28  0  0  0  0  0  0  0  0999 V2000
  -23.3396   17.0722  -14.5036 C   0  0  0  0  0  0
  -22.4395   16.8433  -13.3872 O   0  0  0  0  0  0
  -22.4473   17.8097  -12.3674 C   0  0  0  0  0  0
  -21.4525   18.9676  -12.3633 C   0  0  0  0  0  0
  -20.9201   18.8548  -13.6842 O   0  0  0  0  0  0
  -19.5521   18.6529  -13.7546 C   0  0  0  0  0  0
  -19.3837   18.5470  -15.1927 C   0  0  0  0  0  0
  -18.8566   16.8402  -15.4582 C   0  0  0  0  0  0
  -17.9642   16.3905  -16.8671 C   0  0  0  0  0  0
  -17.4988   17.5906  -18.0576 C   0  0  0  0  0  0
  -17.9743   19.3430  -17.8989 C   0  0  0  0  0  0
  -18.9034   19.8885  -16.4003 C   0  0  0  0  0  0
  -21.2783   20.2620  -11.2837 C   0  0  0  0  0  0
  -20.8517   22.8776  -12.0112 Br  0  0  0  0  0  0
  -22.4040   19.7583  -10.2647 C   0  0  0  0  0  0
  -23.4748   18.6976  -10.4484 C   0  0  0  0  0  0
  -24.6647   18.4565   -9.5639 C   0  0  0  0  0  0
  -25.0807   19.0545   -8.4888 N   0  0  0  0  0  0
  -24.4520   20.1755   -8.0954 N   0  0  0  0  0  0
  -24.9057   21.4359   -8.3026 C   0  0  0  0  0  0
  -26.0701   21.6689   -8.8704 N   0  0  0  0  0  0
  -26.2649   23.0255   -9.0252 C   0  0  0  0  0  0
  -25.2536   23.8304   -8.5536 C   0  0  0  0  0  0
  -24.0003   22.8573   -7.9139 S   0  0  0  0  0  0
  -23.5005   17.7848  -11.4912 C   0  0  0  0  0  0
  -23.5086   20.1044   -7.7245 H   0  0  0  0  0  0
  1  2  1  0  0  0
  2  3  1  0  0  0
  3  4  2  0  0  0
  3 25  1  0  0  0
  4  5  1  0  0  0
  4 13  1  0  0  0
  5  6  1  0  0  0
  6  7  1  0  0  0
  7  8  2  0  0  0
  7 12  1  0  0  0
  8  9  1  0  0  0
  9 10  2  0  0  0
 10 11  1  0  0  0
 11 12  2  0  0  0
 13 14  1  0  0  0
 13 15  2  0  0  0
 15 16  1  0  0  0
 16 17  1  0  0  0
 16 25  2  0  0  0
 17 18  2  0  0  0
 18 19  1  0  0  0
 19 20  1  0  0  0
 19 26  1  0  0  0
 20 21  2  0  0  0
 20 24  1  0  0  0
 21 22  1  0  0  0
 22 23  2  0  0  0
 23 24  1  0  0  0
M  END
>  <CHROM.0>
-60.50422990,66.18682394,-41.57692257,63.18467513,-29.71240115,59.53487235
81.82687234,-162.67311605

>  <CHROM.1>
-94.07926436,-120.84755848,178.28981994,-114.14223760,0.84908140,100.82994845
3.35806622,-22.01877205,20.14043762,-11.95588114,0.67313629,-0.77099409,-2.76103485

>  <Name>
F3285-1602

>  <RI>
2.18832e+07

>  <Rbt.Current_Directory>
/home/adria/Escritorio/rDock_CMTR_LC/2pxcA_model/inputs_sah

>  <Rbt.Executable>
rbdock ($Id: //depot/dev/client3/rdock/2013.1/src/exe/rbdock.cxx#4 $)

>  <Rbt.Library>
libRbt.so (2013.1, Build901 2013/11/27)

>  <Rbt.Parameter_File>
/home/adria/Escritorio/rDock_2013.1_src/data/scripts/dock.prm

>  <Rbt.Receptor>
sah_rdock.prm

>  <SCORE>
-281.192

>  <SCORE.INTER>
-9.04516

>  <SCORE.INTER.CONST>
1

>  <SCORE.INTER.POLAR>
0

>  <SCORE.INTER.REPUL>
0.00432999

>  <SCORE.INTER.ROT>
7

>  <SCORE.INTER.VDW>
-21.4668

>  <SCORE.INTER.norm>
-0.361807

>  <SCORE.INTRA>
-265.215

>  <SCORE.INTRA.DIHEDRAL>
-1.24697

>  <SCORE.INTRA.DIHEDRAL.0>
16.6465

>  <SCORE.INTRA.POLAR>
0

>  <SCORE.INTRA.POLAR.0>
0

>  <SCORE.INTRA.REPUL>
-0.00203294

>  <SCORE.INTRA.REPUL.0>
0.00203294

>  <SCORE.INTRA.VDW>
-264.582

>  <SCORE.INTRA.VDW.0>
261.865

>  <SCORE.INTRA.norm>
-10.6086

>  <SCORE.RESTR>
0

>  <SCORE.RESTR.CAVITY>
0

>  <SCORE.RESTR.norm>
0

>  <SCORE.SYSTEM>
-6.93188

>  <SCORE.SYSTEM.CONST>
0

>  <SCORE.SYSTEM.DIHEDRAL>
6.14649

>  <SCORE.SYSTEM.POLAR>
-3.6499

>  <SCORE.SYSTEM.VDW>
2.40453

>  <SCORE.SYSTEM.norm>
-0.277275

>  <SCORE.heavy>
25

>  <SCORE.norm>
-11.2477

$$$$
F3285-1602
  rDOCK(R)          3D
libRbt.so/2013.1/901 2013/11/27
 26 28  0  0  0  0  0  0  0  0999 V2000
  -19.0023   20.4301  -17.2602 C   0  0  0  0  0  0
  -18.6731   20.8095  -15.8977 O   0  0  0  0  0  0
  -19.7521   20.9575  -15.0101 C   0  0  0  0  0  0
  -20.6957   19.7964  -14.7069 C   0  0  0  0  0  0
  -19.9636   18.7124  -15.2813 O   0  0  0  0  0  0
  -19.4634   17.7919  -14.3759 C   0  0  0  0  0  0
  -18.5676   17.0450  -15.2404 C   0  0  0  0  0  0
  -17.1439   18.1343  -15.4596 C   0  0  0  0  0  0
  -16.1123   17.9887  -16.8374 C   0  0  0  0  0  0
  -16.4482   16.8103  -18.0915 C   0  0  0  0  0  0
  -17.8544   15.6560  -17.9801 C   0  0  0  0  0  0
  -19.0084   15.7834  -16.5452 C   0  0  0  0  0  0
  -22.0295   19.7085  -13.6655 C   0  0  0  0  0  0
  -22.5681   17.6192  -11.9634 Br  0  0  0  0  0  0
  -21.9964   21.2532  -13.2506 C   0  0  0  0  0  0
  -20.9052   22.2894  -13.4534 C   0  0  0  0  0  0
  -20.8188   23.6439  -12.8100 C   0  0  0  0  0  0
  -21.7090   24.3796  -12.2162 N   0  0  0  0  0  0
  -22.9268   23.8564  -11.9929 N   0  0  0  0  0  0
  -23.4945   23.6993  -10.7721 C   0  0  0  0  0  0
  -24.6733   23.1328  -10.6234 N   0  0  0  0  0  0
  -25.0522   23.1554   -9.2974 C   0  0  0  0  0  0
  -24.1483   23.7225   -8.4290 C   0  0  0  0  0  0
  -22.7832   24.2704   -9.3028 S   0  0  0  0  0  0
  -19.8071   22.1166  -14.2814 C   0  0  0  0  0  0
  -23.4257   23.4272  -12.7671 H   0  0  0  0  0  0
  1  2  1  0  0  0
  2  3  1  0  0  0
  3  4  2  0  0  0
  3 25  1  0  0  0
  4  5  1  0  0  0
  4 13  1  0  0  0
  5  6  1  0  0  0
  6  7  1  0  0  0
  7  8  2  0  0  0
  7 12  1  0  0  0
  8  9  1  0  0  0
  9 10  2  0  0  0
 10 11  1  0  0  0
 11 12  2  0  0  0
 13 14  1  0  0  0
 13 15  2  0  0  0
 15 16  1  0  0  0
 16 17  1  0  0  0
 16 25  2  0  0  0
 17 18  2  0  0  0
 18 19  1  0  0  0
 19 20  1  0  0  0
 19 26  1  0  0  0
 20 21  2  0  0  0
 20 24  1  0  0  0
 21 22  1  0  0  0
 22 23  2  0  0  0
 23 24  1  0  0  0
M  END
>  <CHROM.0>
-63.46462490,-77.12879669,-8.75644957,65.45432938,33.84112832,-54.80841779
82.45513723,-160.63433887

>  <CHROM.1>
59.79814033,112.13972455,-168.05664537,75.47245904,-17.90954896,119.97958386
-177.44294394,-21.02404872,20.23095393,-13.31912870,-0.71956619,0.80501931
0.12192801

>  <Name>
F3285-1602

>  <RI>
2.18832e+07

>  <Rbt.Current_Directory>
/home/adria/Escritorio/rDock_CMTR_LC/2pxcA_model/inputs_sah

>  <Rbt.Executable>
rbdock ($Id: //depot/dev/client3/rdock/2013.1/src/exe/rbdock.cxx#4 $)

>  <Rbt.Library>
libRbt.so (2013.1, Build901 2013/11/27)

>  <Rbt.Parameter_File>
/home/adria/Escritorio/rDock_2013.1_src/data/scripts/dock.prm

>  <Rbt.Receptor>
sah_rdock.prm

>  <SCORE>
-266.134

>  <SCORE.INTER>
-5.77221

>  <SCORE.INTER.CONST>
1

>  <SCORE.INTER.POLAR>
0

>  <SCORE.INTER.REPUL>
0

>  <SCORE.INTER.ROT>
7

>  <SCORE.INTER.VDW>
-18.1722

>  <SCORE.INTER.norm>
-0.230889

>  <SCORE.INTRA>
-264.975

>  <SCORE.INTRA.DIHEDRAL>
-1.74068

>  <SCORE.INTRA.DIHEDRAL.0>
16.6465

>  <SCORE.INTRA.POLAR>
0

>  <SCORE.INTRA.POLAR.0>
0

>  <SCORE.INTRA.REPUL>
-0.00203294

>  <SCORE.INTRA.REPUL.0>
0.00203294

>  <SCORE.INTRA.VDW>
-264.095

>  <SCORE.INTRA.VDW.0>
261.865

>  <SCORE.INTRA.norm>
-10.599

>  <SCORE.RESTR>
0

>  <SCORE.RESTR.CAVITY>
0

>  <SCORE.RESTR.norm>
0

>  <SCORE.SYSTEM>
4.61328

>  <SCORE.SYSTEM.CONST>
0

>  <SCORE.SYSTEM.DIHEDRAL>
9.55475

>  <SCORE.SYSTEM.POLAR>
-4.36378

>  <SCORE.SYSTEM.REPUL>
0.0450603

>  <SCORE.SYSTEM.VDW>
14.4475

>  <SCORE.SYSTEM.norm>
0.184531

>  <SCORE.heavy>
25

>  <SCORE.norm>
-10.6454

$$$$
F3285-1602
  rDOCK(R)          3D
libRbt.so/2013.1/901 2013/11/27
 26 28  0  0  0  0  0  0  0  0999 V2000
  -25.3493   19.2821  -11.2398 C   0  0  0  0  0  0
  -24.8464   19.7939  -12.5024 O   0  0  0  0  0  0
  -23.7741   20.6988  -12.4294 C   0  0  0  0  0  0
  -22.3746   20.2406  -12.0268 C   0  0  0  0  0  0
  -22.5350   18.8231  -12.1050 O   0  0  0  0  0  0
  -21.3637   18.1046  -12.2752 C   0  0  0  0  0  0
  -21.2518   18.1387  -13.7223 C   0  0  0  0  0  0
  -20.1806   16.7409  -14.1224 C   0  0  0  0  0  0
  -19.2700   16.7056  -15.5898 C   0  0  0  0  0  0
  -19.3197   18.0523  -16.7114 C   0  0  0  0  0  0
  -20.3646   19.5164  -16.4164 C   0  0  0  0  0  0
  -21.3377   19.6237  -14.8518 C   0  0  0  0  0  0
  -20.9281   21.1136  -11.8976 C   0  0  0  0  0  0
  -18.4810   20.2571  -12.8089 Br  0  0  0  0  0  0
  -21.5850   22.5376  -12.2137 C   0  0  0  0  0  0
  -22.9494   22.8704  -12.7909 C   0  0  0  0  0  0
  -23.4056   24.2027  -13.3133 C   0  0  0  0  0  0
  -22.9249   25.4006  -13.1699 N   0  0  0  0  0  0
  -21.7402   25.5455  -12.5516 N   0  0  0  0  0  0
  -21.5408   25.4336  -11.2155 C   0  0  0  0  0  0
  -20.3560   25.6200  -10.6734 N   0  0  0  0  0  0
  -20.4075   25.3831   -9.3157 C   0  0  0  0  0  0
  -21.6420   25.0354   -8.8178 C   0  0  0  0  0  0
  -22.7779   24.9784  -10.0959 S   0  0  0  0  0  0
  -23.9865   21.9600  -12.9211 C   0  0  0  0  0  0
  -20.9460   25.8853  -13.0866 H   0  0  0  0  0  0
  1  2  1  0  0  0
  2  3  1  0  0  0
  3  4  2  0  0  0
  3 25  1  0  0  0
  4  5  1  0  0  0
  4 13  1  0  0  0
  5  6  1  0  0  0
  6  7  1  0  0  0
  7  8  2  0  0  0
  7 12  1  0  0  0
  8  9  1  0  0  0
  9 10  2  0  0  0
 10 11  1  0  0  0
 11 12  2  0  0  0
 13 14  1  0  0  0
 13 15  2  0  0  0
 15 16  1  0  0  0
 16 17  1  0  0  0
 16 25  2  0  0  0
 17 18  2  0  0  0
 18 19  1  0  0  0
 19 20  1  0  0  0
 19 26  1  0  0  0
 20 21  2  0  0  0
 20 24  1  0  0  0
 21 22  1  0  0  0
 22 23  2  0  0  0
 23 24  1  0  0  0
M  END
>  <CHROM.0>
40.54764256,67.31309039,75.89117973,63.30937935,168.48667814,-55.98648388
-36.81137148,-157.76540955

>  <CHROM.1>
70.93983788,157.49227016,-86.63254725,-158.46504395,-16.14917890,-74.98969421
-178.34468315,-21.33944321,21.40492200,-12.53358138,1.28734841,-0.14350787
-2.70903171

>  <Name>
F3285-1602

>  <RI>
2.18832e+07

>  <Rbt.Current_Directory>
/home/adria/Escritorio/rDock_CMTR_LC/2pxcA_model/inputs_sah

>  <Rbt.Executable>
rbdock ($Id: //depot/dev/client3/rdock/2013.1/src/exe/rbdock.cxx#4 $)

>  <Rbt.Library>
libRbt.so (2013.1, Build901 2013/11/27)

>  <Rbt.Parameter_File>
/home/adria/Escritorio/rDock_2013.1_src/data/scripts/dock.prm

>  <Rbt.Receptor>
sah_rdock.prm

>  <SCORE>
-280.221

>  <SCORE.INTER>
-15.5962

>  <SCORE.INTER.CONST>
1

>  <SCORE.INTER.POLAR>
-1.53731

>  <SCORE.INTER.REPUL>
0.0674561

>  <SCORE.INTER.ROT>
7

>  <SCORE.INTER.VDW>
-23.1067

>  <SCORE.INTER.norm>
-0.623849

>  <SCORE.INTRA>
-266.597

>  <SCORE.INTRA.DIHEDRAL>
-0.803599

>  <SCORE.INTRA.DIHEDRAL.0>
16.6465

>  <SCORE.INTRA.POLAR>
0

>  <SCORE.INTRA.POLAR.0>
0

>  <SCORE.INTRA.REPUL>
-0.00203294

>  <SCORE.INTRA.REPUL.0>
0.00203294

>  <SCORE.INTRA.VDW>
-266.185

>  <SCORE.INTRA.VDW.0>
261.865

>  <SCORE.INTRA.norm>
-10.6639

>  <SCORE.RESTR>
0

>  <SCORE.RESTR.CAVITY>
0

>  <SCORE.RESTR.norm>
0

>  <SCORE.SYSTEM>
1.97195

>  <SCORE.SYSTEM.CONST>
0

>  <SCORE.SYSTEM.DIHEDRAL>
5.14751

>  <SCORE.SYSTEM.POLAR>
-3.60684

>  <SCORE.SYSTEM.REPUL>
0.121354

>  <SCORE.SYSTEM.VDW>
11.0547

>  <SCORE.SYSTEM.norm>
0.078878

>  <SCORE.heavy>
25

>  <SCORE.norm>
-11.2088

$$$$
F3285-1602
  rDOCK(R)          3D
libRbt.so/2013.1/901 2013/11/27
 26 28  0  0  0  0  0  0  0  0999 V2000
  -20.9703   17.2686  -14.0151 C   0  0  0  0  0  0
  -20.5796   17.4017  -12.6228 O   0  0  0  0  0  0
  -21.1334   18.4828  -11.9169 C   0  0  0  0  0  0
  -20.5229   19.8797  -11.9971 C   0  0  0  0  0  0
  -19.6240   19.7057  -13.0938 O   0  0  0  0  0  0
  -19.2724   20.8676  -13.7596 C   0  0  0  0  0  0
  -18.4426   20.3154  -14.8151 C   0  0  0  0  0  0
  -19.1325   21.0047  -16.3352 C   0  0  0  0  0  0
  -18.9118   20.2135  -17.8547 C   0  0  0  0  0  0
  -18.0536   18.6880  -17.9577 C   0  0  0  0  0  0
  -17.3121   17.8965  -16.4928 C   0  0  0  0  0  0
  -17.5401   18.6804  -14.8375 C   0  0  0  0  0  0
  -21.0126   21.3350  -11.2805 C   0  0  0  0  0  0
  -21.0993   23.7698  -12.5521 Br  0  0  0  0  0  0
  -22.2092   20.6902  -10.4369 C   0  0  0  0  0  0
  -22.8638   19.3264  -10.5674 C   0  0  0  0  0  0
  -24.1501   18.8804   -9.9327 C   0  0  0  0  0  0
  -24.9270   19.4457   -9.0591 N   0  0  0  0  0  0
  -24.6635   20.7115   -8.6918 N   0  0  0  0  0  0
  -25.4280   21.7871   -9.0020 C   0  0  0  0  0  0
  -25.1004   23.0036   -8.6209 N   0  0  0  0  0  0
  -26.0724   23.9040   -9.0040 C   0  0  0  0  0  0
  -27.1350   23.3741   -9.6989 C   0  0  0  0  0  0
  -26.9259   21.6837   -9.8603 S   0  0  0  0  0  0
  -22.3483   18.2801  -11.3163 C   0  0  0  0  0  0
  -23.7695   20.9199   -8.2563 H   0  0  0  0  0  0
  1  2  1  0  0  0
  2  3  1  0  0  0
  3  4  2  0  0  0
  3 25  1  0  0  0
  4  5  1  0  0  0
  4 13  1  0  0  0
  5  6  1  0  0  0
  6  7  1  0  0  0
  7  8  2  0  0  0
  7 12  1  0  0  0
  8  9  1  0  0  0
  9 10  2  0  0  0
 10 11  1  0  0  0
 11 12  2  0  0  0
 13 14  1  0  0  0
 13 15  2  0  0  0
 15 16  1  0  0  0
 16 17  1  0  0  0
 16 25  2  0  0  0
 17 18  2  0  0  0
 18 19  1  0  0  0
 19 20  1  0  0  0
 19 26  1  0  0  0
 20 21  2  0  0  0
 20 24  1  0  0  0
 21 22  1  0  0  0
 22 23  2  0  0  0
 23 24  1  0  0  0
M  END
>  <CHROM.0>
-62.23101536,68.61791626,-9.16485379,67.63097139,167.96126342,-58.88404928
-156.68113935,-161.89016789

>  <CHROM.1>
-83.16657218,156.81857555,-177.06344190,127.79673592,-7.48569018,110.77152543
-179.19758998,-21.93046692,20.85996905,-12.16919892,0.22882131,-0.73722943
3.07893195

>  <Name>
F3285-1602

>  <RI>
2.18832e+07

>  <Rbt.Current_Directory>
/home/adria/Escritorio/rDock_CMTR_LC/2pxcA_model/inputs_sah

>  <Rbt.Executable>
rbdock ($Id: //depot/dev/client3/rdock/2013.1/src/exe/rbdock.cxx#4 $)

>  <Rbt.Library>
libRbt.so (2013.1, Build901 2013/11/27)

>  <Rbt.Parameter_File>
/home/adria/Escritorio/rDock_2013.1_src/data/scripts/dock.prm

>  <Rbt.Receptor>
sah_rdock.prm

>  <SCORE>
-279.834

>  <SCORE.INTER>
-10.7646

>  <SCORE.INTER.CONST>
1

>  <SCORE.INTER.POLAR>
-0.769943

>  <SCORE.INTER.REPUL>
0.0110646

>  <SCORE.INTER.ROT>
7

>  <SCORE.INTER.VDW>
-20.6021

>  <SCORE.INTER.norm>
-0.430582

>  <SCORE.INTRA>
-266.858

>  <SCORE.INTRA.DIHEDRAL>
-5.00932

>  <SCORE.INTRA.DIHEDRAL.0>
16.6465

>  <SCORE.INTRA.POLAR>
0

>  <SCORE.INTRA.POLAR.0>
0

>  <SCORE.INTRA.REPUL>
-0.00203294

>  <SCORE.INTRA.REPUL.0>
0.00203294

>  <SCORE.INTRA.VDW>
-264.343

>  <SCORE.INTRA.VDW.0>
261.865

>  <SCORE.INTRA.norm>
-10.6743

>  <SCORE.RESTR>
0.0145038

>  <SCORE.RESTR.CAVITY>
0.0145038

>  <SCORE.RESTR.norm>
0.000580154

>  <SCORE.SYSTEM>
-2.22598

>  <SCORE.SYSTEM.CONST>
0

>  <SCORE.SYSTEM.DIHEDRAL>
6.40713

>  <SCORE.SYSTEM.POLAR>
-4.27305

>  <SCORE.SYSTEM.VDW>
9.09881

>  <SCORE.SYSTEM.norm>
-0.0890392

>  <SCORE.heavy>
25

>  <SCORE.norm>
-11.1933

$$$$
F3285-1602
  rDOCK(R)          3D
libRbt.so/2013.1/901 2013/11/27
 26 28  0  0  0  0  0  0  0  0999 V2000
  -15.4428   18.0495  -17.2201 C   0  0  0  0  0  0
  -16.4114   17.6801  -16.2031 O   0  0  0  0  0  0
  -17.6193   18.3977  -16.1977 C   0  0  0  0  0  0
  -18.9509   17.7130  -16.4950 C   0  0  0  0  0  0
  -18.5565   16.3416  -16.4270 O   0  0  0  0  0  0
  -19.0463   15.5351  -17.4403 C   0  0  0  0  0  0
  -18.0079   14.5213  -17.4835 C   0  0  0  0  0  0
  -17.2859   14.6887  -19.1305 C   0  0  0  0  0  0
  -16.4637   13.3691  -19.8829 C   0  0  0  0  0  0
  -16.3509   11.8098  -19.0890 C   0  0  0  0  0  0
  -17.0392   11.5210  -17.4262 C   0  0  0  0  0  0
  -17.9542   12.8852  -16.5844 C   0  0  0  0  0  0
  -20.5259   18.3377  -16.5180 C   0  0  0  0  0  0
  -22.7278   17.1074  -15.4268 Br  0  0  0  0  0  0
  -20.0886   19.8535  -16.2533 C   0  0  0  0  0  0
  -18.7583   20.4112  -15.7791 C   0  0  0  0  0  0
  -18.4885   21.8069  -15.2938 C   0  0  0  0  0  0
  -19.1970   22.6282  -14.5797 N   0  0  0  0  0  0
  -20.3442   22.1820  -14.0400 N   0  0  0  0  0  0
  -20.4963   20.9921  -13.4087 C   0  0  0  0  0  0
  -19.4753   20.1936  -13.1793 N   0  0  0  0  0  0
  -19.9050   19.0242  -12.5876 C   0  0  0  0  0  0
  -21.2568   18.9404  -12.3456 C   0  0  0  0  0  0
  -22.0255   20.3652  -12.8991 S   0  0  0  0  0  0
  -17.5800   19.6832  -15.7249 C   0  0  0  0  0  0
  -21.2014   22.6996  -14.2127 H   0  0  0  0  0  0
  1  2  1  0  0  0
  2  3  1  0  0  0
  3  4  2  0  0  0
  3 25  1  0  0  0
  4  5  1  0  0  0
  4 13  1  0  0  0
  5  6  1  0  0  0
  6  7  1  0  0  0
  7  8  2  0  0  0
  7 12  1  0  0  0
  8  9  1  0  0  0
  9 10  2  0  0  0
 10 11  1  0  0  0
 11 12  2  0  0  0
 13 14  1  0  0  0
 13 15  2  0  0  0
 15 16  1  0  0  0
 16 17  1  0  0  0
 16 25  2  0  0  0
 17 18  2  0  0  0
 18 19  1  0  0  0
 19 20  1  0  0  0
 19 26  1  0  0  0
 20 21  2  0  0  0
 20 24  1  0  0  0
 21 22  1  0  0  0
 22 23  2  0  0  0
 23 24  1  0  0  0
M  END
>  <CHROM.0>
-177.28613546,-70.89997102,-128.30259581,-59.68203782,-30.36711019,64.94485582
-38.68458777,-161.85429980

>  <CHROM.1>
115.36742412,-135.57947771,152.73467981,-116.69290516,37.31464794,44.71205632
5.26219373,-19.54866017,17.79118254,-15.68816842,-1.10009679,0.35176156,0.39572151

>  <Name>
F3285-1602

>  <RI>
2.18832e+07

>  <Rbt.Current_Directory>
/home/adria/Escritorio/rDock_CMTR_LC/2pxcA_model/inputs_sah

>  <Rbt.Executable>
rbdock ($Id: //depot/dev/client3/rdock/2013.1/src/exe/rbdock.cxx#4 $)

>  <Rbt.Library>
libRbt.so (2013.1, Build901 2013/11/27)

>  <Rbt.Parameter_File>
/home/adria/Escritorio/rDock_2013.1_src/data/scripts/dock.prm

>  <Rbt.Receptor>
sah_rdock.prm

>  <SCORE>
-274.73

>  <SCORE.INTER>
-4.44142

>  <SCORE.INTER.CONST>
1

>  <SCORE.INTER.POLAR>
0

>  <SCORE.INTER.REPUL>
0

>  <SCORE.INTER.ROT>
7

>  <SCORE.INTER.VDW>
-16.8414

>  <SCORE.INTER.norm>
-0.177657

>  <SCORE.INTRA>
-263.823

>  <SCORE.INTRA.DIHEDRAL>
2.90781

>  <SCORE.INTRA.DIHEDRAL.0>
16.6465

>  <SCORE.INTRA.POLAR>
0

>  <SCORE.INTRA.POLAR.0>
0

>  <SCORE.INTRA.REPUL>
-0.00203294

>  <SCORE.INTRA.REPUL.0>
0.00203294

>  <SCORE.INTRA.VDW>
-265.267

>  <SCORE.INTRA.VDW.0>
261.865

>  <SCORE.INTRA.norm>
-10.5529

>  <SCORE.RESTR>
0.00273984

>  <SCORE.RESTR.CAVITY>
0.00273984

>  <SCORE.RESTR.norm>
0.000109594

>  <SCORE.SYSTEM>
-6.4684

>  <SCORE.SYSTEM.CONST>
0

>  <SCORE.SYSTEM.DIHEDRAL>
9.10604

>  <SCORE.SYSTEM.POLAR>
-4.44737

>  <SCORE.SYSTEM.REPUL>
0.0345717

>  <SCORE.SYSTEM.VDW>
3.92677

>  <SCORE.SYSTEM.norm>
-0.258736

>  <SCORE.heavy>
25

>  <SCORE.norm>
-10.9892

$$$$
F3285-1602
  rDOCK(R)          3D
libRbt.so/2013.1/901 2013/11/27
 26 28  0  0  0  0  0  0  0  0999 V2000
  -26.3686   18.9494  -12.7356 C   0  0  0  0  0  0
  -25.8901   20.2537  -13.1585 O   0  0  0  0  0  0
  -24.9705   20.8900  -12.3080 C   0  0  0  0  0  0
  -23.5453   20.3672  -12.1463 C   0  0  0  0  0  0
  -23.4883   19.4354  -13.2278 O   0  0  0  0  0  0
  -22.2140   19.0566  -13.6147 C   0  0  0  0  0  0
  -22.5382   18.0905  -14.6487 C   0  0  0  0  0  0
  -22.0839   18.9140  -16.1904 C   0  0  0  0  0  0
  -22.8095   18.4619  -17.6913 C   0  0  0  0  0  0
  -24.0484   17.2228  -17.7538 C   0  0  0  0  0  0
  -24.5881   16.3212  -16.2645 C   0  0  0  0  0  0
  -23.8694   16.7806  -14.6277 C   0  0  0  0  0  0
  -22.2550   20.9634  -11.2239 C   0  0  0  0  0  0
  -19.6573   21.1757  -12.0956 Br  0  0  0  0  0  0
  -23.0958   22.1350  -10.5315 C   0  0  0  0  0  0
  -24.4572   22.6992  -10.8973 C   0  0  0  0  0  0
  -25.0739   23.9683  -10.3823 C   0  0  0  0  0  0
  -24.6633   24.8405   -9.5122 N   0  0  0  0  0  0
  -23.4175   24.7191   -9.0226 N   0  0  0  0  0  0
  -22.3004   25.2208   -9.6039 C   0  0  0  0  0  0
  -22.3519   25.9111  -10.7234 N   0  0  0  0  0  0
  -21.0801   26.2477  -11.1378 C   0  0  0  0  0  0
  -20.0565   25.8304  -10.3188 C   0  0  0  0  0  0
  -20.7030   24.9638   -8.9928 S   0  0  0  0  0  0
  -25.3379   22.1025  -11.7859 C   0  0  0  0  0  0
  -23.2606   24.1067   -8.2270 H   0  0  0  0  0  0
  1  2  1  0  0  0
  2  3  1  0  0  0
  3  4  2  0  0  0
  3 25  1  0  0  0
  4  5  1  0  0  0
  4 13  1  0  0  0
  5  6  1  0  0  0
  6  7  1  0  0  0
  7  8  2  0  0  0
  7 12  1  0  0  0
  8  9  1  0  0  0
  9 10  2  0  0  0
 10 11  1  0  0  0
 11 12  2  0  0  0
 13 14  1  0  0  0
 13 15  2  0  0  0
 15 16  1  0  0  0
 16 17  1  0  0  0
 16 25  2  0  0  0
 17 18  2  0  0  0
 18 19  1  0  0  0
 19 20  1  0  0  0
 19 26  1  0  0  0
 20 21  2  0  0  0
 20 24  1  0  0  0
 21 22  1  0  0  0
 22 23  2  0  0  0
 23 24  1  0  0  0
M  END
>  <CHROM.0>
170.96260388,64.94174965,-167.35248148,-61.44207058,-31.14463670,179.49381682
-158.00939040,-167.63808000

>  <CHROM.1>
69.88686896,162.06278523,177.29536198,108.44486327,-2.67640790,85.87342183
1.19926147,-22.58093807,21.53649328,-12.21040840,1.78368733,-0.07273128,-2.44722185

>  <Name>
F3285-1602

>  <RI>
2.18832e+07

>  <Rbt.Current_Directory>
/home/adria/Escritorio/rDock_CMTR_LC/2pxcA_model/inputs_sah

>  <Rbt.Executable>
rbdock ($Id: //depot/dev/client3/rdock/2013.1/src/exe/rbdock.cxx#4 $)

>  <Rbt.Library>
libRbt.so (2013.1, Build901 2013/11/27)

>  <Rbt.Parameter_File>
/home/adria/Escritorio/rDock_2013.1_src/data/scripts/dock.prm

>  <Rbt.Receptor>
sah_rdock.prm

>  <SCORE>
-284.912

>  <SCORE.INTER>
-10.9995

>  <SCORE.INTER.CONST>
1

>  <SCORE.INTER.POLAR>
-1.63431

>  <SCORE.INTER.REPUL>
0.00236411

>  <SCORE.INTER.ROT>
7

>  <SCORE.INTER.VDW>
-17.8547

>  <SCORE.INTER.norm>
-0.439981

>  <SCORE.INTRA>
-267.487

>  <SCORE.INTRA.DIHEDRAL>
-4.7518

>  <SCORE.INTRA.DIHEDRAL.0>
16.6465

>  <SCORE.INTRA.POLAR>
0

>  <SCORE.INTRA.POLAR.0>
0

>  <SCORE.INTRA.REPUL>
-0.00203294

>  <SCORE.INTRA.REPUL.0>
0.00203294

>  <SCORE.INTRA.VDW>
-265.101

>  <SCORE.INTRA.VDW.0>
261.865

>  <SCORE.INTRA.norm>
-10.6995

>  <SCORE.RESTR>
0.000915901

>  <SCORE.RESTR.CAVITY>
0.000915901

>  <SCORE.RESTR.norm>
3.6636e-05

>  <SCORE.SYSTEM>
-6.42655

>  <SCORE.SYSTEM.CONST>
0

>  <SCORE.SYSTEM.DIHEDRAL>
5.57807

>  <SCORE.SYSTEM.POLAR>
-3.6063

>  <SCORE.SYSTEM.VDW>
3.04585

>  <SCORE.SYSTEM.norm>
-0.257062

>  <SCORE.heavy>
25

>  <SCORE.norm>
-11.3965

$$$$
F3285-1602
  rDOCK(R)          3D
libRbt.so/2013.1/901 2013/11/27
 26 28  0  0  0  0  0  0  0  0999 V2000
  -23.5112   16.6492  -13.7005 C   0  0  0  0  0  0
  -22.3518   16.8586  -12.8514 O   0  0  0  0  0  0
  -22.4163   17.9414  -11.9584 C   0  0  0  0  0  0
  -21.4614   19.1266  -12.0775 C   0  0  0  0  0  0
  -20.8946   18.8728  -13.3641 O   0  0  0  0  0  0
  -19.6800   19.4915  -13.6070 C   0  0  0  0  0  0
  -19.4964   19.1519  -15.0065 C   0  0  0  0  0  0
  -18.7611   17.5027  -14.9753 C   0  0  0  0  0  0
  -17.8165   16.9214  -16.2994 C   0  0  0  0  0  0
  -17.5008   17.9374  -17.6931 C   0  0  0  0  0  0
  -18.1903   19.6183  -17.8385 C   0  0  0  0  0  0
  -19.1834   20.3047  -16.4424 C   0  0  0  0  0  0
  -21.3566   20.5485  -11.1619 C   0  0  0  0  0  0
  -21.0015   23.0696  -12.1968 Br  0  0  0  0  0  0
  -22.4882   20.1324  -10.1106 C   0  0  0  0  0  0
  -23.5180   19.0189  -10.1831 C   0  0  0  0  0  0
  -24.7196   18.8445   -9.2987 C   0  0  0  0  0  0
  -25.6346   19.6780   -8.9057 N   0  0  0  0  0  0
  -25.6455   20.9135   -9.4349 N   0  0  0  0  0  0
  -24.8321   21.9295   -9.0562 C   0  0  0  0  0  0
  -23.9370   21.7823   -8.1025 N   0  0  0  0  0  0
  -23.2893   22.9766   -7.8645 C   0  0  0  0  0  0
  -23.6780   24.0332   -8.6553 C   0  0  0  0  0  0
  -24.9158   23.5240   -9.7210 S   0  0  0  0  0  0
  -23.4883   17.9853  -11.1062 C   0  0  0  0  0  0
  -26.3900   21.1645  -10.0793 H   0  0  0  0  0  0
  1  2  1  0  0  0
  2  3  1  0  0  0
  3  4  2  0  0  0
  3 25  1  0  0  0
  4  5  1  0  0  0
  4 13  1  0  0  0
  5  6  1  0  0  0
  6  7  1  0  0  0
  7  8  2  0  0  0
  7 12  1  0  0  0
  8  9  1  0  0  0
  9 10  2  0  0  0
 10 11  1  0  0  0
 11 12  2  0  0  0
 13 14  1  0  0  0
 13 15  2  0  0  0
 15 16  1  0  0  0
 16 17  1  0  0  0
 16 25  2  0  0  0
 17 18  2  0  0  0
 18 19  1  0  0  0
 19 20  1  0  0  0
 19 26  1  0  0  0
 20 21  2  0  0  0
 20 24  1  0  0  0
 21 22  1  0  0  0
 22 23  2  0  0  0
 23 24  1  0  0  0
M  END
>  <CHROM.0>
-62.35603982,-72.00678745,-69.71516513,-61.62317903,-30.45038636,-60.52952568
-36.25973668,-164.16108238

>  <CHROM.1>
-115.88155912,-159.32418194,-173.69124985,-84.13111685,46.89525086,-79.52744891
-0.21501205,-21.99191913,20.45588422,-11.98470116,0.62291812,-0.78275452
-2.84784093

>  <Name>
F3285-1602

>  <RI>
2.18832e+07

>  <Rbt.Current_Directory>
/home/adria/Escritorio/rDock_CMTR_LC/2pxcA_model/inputs_sah

>  <Rbt.Executable>
rbdock ($Id: //depot/dev/client3/rdock/2013.1/src/exe/rbdock.cxx#4 $)

>  <Rbt.Library>
libRbt.so (2013.1, Build901 2013/11/27)

>  <Rbt.Parameter_File>
/home/adria/Escritorio/rDock_2013.1_src/data/scripts/dock.prm

>  <Rbt.Receptor>
sah_rdock.prm

>  <SCORE>
-278.226

>  <SCORE.INTER>
-8.96907

>  <SCORE.INTER.CONST>
1

>  <SCORE.INTER.POLAR>
-0.903567

>  <SCORE.INTER.REPUL>
0.0685823

>  <SCORE.INTER.ROT>
7

>  <SCORE.INTER.VDW>
-18.6398

>  <SCORE.INTER.norm>
-0.358763

>  <SCORE.INTRA>
-263.069

>  <SCORE.INTRA.DIHEDRAL>
2.26413

>  <SCORE.INTRA.DIHEDRAL.0>
16.6465

>  <SCORE.INTRA.POLAR>
0

>  <SCORE.INTRA.POLAR.0>
0

>  <SCORE.INTRA.REPUL>
-0.00203294

>  <SCORE.INTRA.REPUL.0>
0.00203294

>  <SCORE.INTRA.VDW>
-264.191

>  <SCORE.INTRA.VDW.0>
261.865

>  <SCORE.INTRA.norm>
-10.5228

>  <SCORE.RESTR>
0

>  <SCORE.RESTR.CAVITY>
0

>  <SCORE.RESTR.norm>
0

>  <SCORE.SYSTEM>
-6.18753

>  <SCORE.SYSTEM.CONST>
0

>  <SCORE.SYSTEM.DIHEDRAL>
6.05038

>  <SCORE.SYSTEM.POLAR>
-3.58635

>  <SCORE.SYSTEM.REPUL>
0.0367138

>  <SCORE.SYSTEM.VDW>
2.79731

>  <SCORE.SYSTEM.norm>
-0.247501

>  <SCORE.heavy>
25

>  <SCORE.norm>
-11.129

$$$$
F3285-1602
  rDOCK(R)          3D
libRbt.so/2013.1/901 2013/11/27
 26 28  0  0  0  0  0  0  0  0999 V2000
  -20.7242   23.2439  -12.6381 C   0  0  0  0  0  0
  -20.7771   21.8162  -12.3780 O   0  0  0  0  0  0
  -21.9779   21.3207  -11.8429 C   0  0  0  0  0  0
  -22.5962   20.0202  -12.3501 C   0  0  0  0  0  0
  -21.5119   19.5039  -13.1239 O   0  0  0  0  0  0
  -20.6904   18.6056  -12.4641 C   0  0  0  0  0  0
  -19.7868   18.2472  -13.5424 C   0  0  0  0  0  0
  -18.6574   19.6510  -13.6666 C   0  0  0  0  0  0
  -17.8139   19.9907  -15.1351 C   0  0  0  0  0  0
  -18.0696   19.0106  -16.5663 C   0  0  0  0  0  0
  -19.1833   17.5677  -16.5619 C   0  0  0  0  0  0
  -20.1340   17.1727  -15.0301 C   0  0  0  0  0  0
  -23.9966   19.2042  -11.8561 C   0  0  0  0  0  0
  -24.1879   16.4904  -11.4672 Br  0  0  0  0  0  0
  -24.4590   20.3223  -10.8096 C   0  0  0  0  0  0
  -23.6816   21.4918  -10.2321 C   0  0  0  0  0  0
  -24.0758   22.3440   -9.0596 C   0  0  0  0  0  0
  -24.0216   23.6266   -8.8634 N   0  0  0  0  0  0
  -23.6686   24.4174   -9.8914 N   0  0  0  0  0  0
  -22.4895   25.0779   -9.9961 C   0  0  0  0  0  0
  -22.2323   25.8813  -11.0065 N   0  0  0  0  0  0
  -20.9474   26.3736  -10.9123 C   0  0  0  0  0  0
  -20.2298   25.9602   -9.8136 C   0  0  0  0  0  0
  -21.1860   24.8974   -8.8738 S   0  0  0  0  0  0
  -22.4649   21.9401  -10.7219 C   0  0  0  0  0  0
  -24.3661   24.6515  -10.5922 H   0  0  0  0  0  0
  1  2  1  0  0  0
  2  3  1  0  0  0
  3  4  2  0  0  0
  3 25  1  0  0  0
  4  5  1  0  0  0
  4 13  1  0  0  0
  5  6  1  0  0  0
  6  7  1  0  0  0
  7  8  2  0  0  0
  7 12  1  0  0  0
  8  9  1  0  0  0
  9 10  2  0  0  0
 10 11  1  0  0  0
 11 12  2  0  0  0
 13 14  1  0  0  0
 13 15  2  0  0  0
 15 16  1  0  0  0
 16 17  1  0  0  0
 16 25  2  0  0  0
 17 18  2  0  0  0
 18 19  1  0  0  0
 19 20  1  0  0  0
 19 26  1  0  0  0
 20 21  2  0  0  0
 20 24  1  0  0  0
 21 22  1  0  0  0
 22 23  2  0  0  0
 23 24  1  0  0  0
M  END
>  <CHROM.0>
-173.26253465,-71.83063768,109.11631235,-60.87553246,-30.20074586,-55.89698431
83.26172169,-160.54760026

>  <CHROM.1>
137.18447909,94.97229983,176.83401043,77.29828519,-137.49361531,-108.82822574
-177.11085067,-21.97535165,20.77833049,-11.73728158,-1.60136291,-0.65710640
-2.73234680

>  <Name>
F3285-1602

>  <RI>
2.18832e+07

>  <Rbt.Current_Directory>
/home/adria/Escritorio/rDock_CMTR_LC/2pxcA_model/inputs_sah

>  <Rbt.Executable>
rbdock ($Id: //depot/dev/client3/rdock/2013.1/src/exe/rbdock.cxx#4 $)

>  <Rbt.Library>
libRbt.so (2013.1, Build901 2013/11/27)

>  <Rbt.Parameter_File>
/home/adria/Escritorio/rDock_2013.1_src/data/scripts/dock.prm

>  <Rbt.Receptor>
sah_rdock.prm

>  <SCORE>
-280.165

>  <SCORE.INTER>
-11.3411

>  <SCORE.INTER.CONST>
1

>  <SCORE.INTER.POLAR>
-0.870877

>  <SCORE.INTER.REPUL>
0.00877083

>  <SCORE.INTER.ROT>
7

>  <SCORE.INTER.VDW>
-20.8239

>  <SCORE.INTER.norm>
-0.453642

>  <SCORE.INTRA>
-262.225

>  <SCORE.INTRA.DIHEDRAL>
4.18433

>  <SCORE.INTRA.DIHEDRAL.0>
16.6465

>  <SCORE.INTRA.POLAR>
0

>  <SCORE.INTRA.POLAR.0>
0

>  <SCORE.INTRA.REPUL>
-0.00203294

>  <SCORE.INTRA.REPUL.0>
0.00203294

>  <SCORE.INTRA.VDW>
-264.307

>  <SCORE.INTRA.VDW.0>
261.865

>  <SCORE.INTRA.norm>
-10.489

>  <SCORE.RESTR>
0

>  <SCORE.RESTR.CAVITY>
0

>  <SCORE.RESTR.norm>
0

>  <SCORE.SYSTEM>
-6.5989

>  <SCORE.SYSTEM.CONST>
0

>  <SCORE.SYSTEM.DIHEDRAL>
9.52415

>  <SCORE.SYSTEM.POLAR>
-4.54271

>  <SCORE.SYSTEM.REPUL>
0.0363808

>  <SCORE.SYSTEM.VDW>
3.90233

>  <SCORE.SYSTEM.norm>
-0.263956

>  <SCORE.heavy>
25

>  <SCORE.norm>
-11.2066

$$$$
F3285-1602
  rDOCK(R)          3D
libRbt.so/2013.1/901 2013/11/27
 26 28  0  0  0  0  0  0  0  0999 V2000
  -21.6537   23.3949  -11.9673 C   0  0  0  0  0  0
  -20.9718   22.4764  -11.0728 O   0  0  0  0  0  0
  -20.6602   21.2093  -11.5937 C   0  0  0  0  0  0
  -21.5032   19.9824  -11.2550 C   0  0  0  0  0  0
  -22.6363   20.6073  -10.6495 O   0  0  0  0  0  0
  -23.7595   19.8064  -10.5311 C   0  0  0  0  0  0
  -24.6867   20.7538   -9.9391 C   0  0  0  0  0  0
  -25.4877   21.5411  -11.3534 C   0  0  0  0  0  0
  -26.1965   23.1105  -11.2182 C   0  0  0  0  0  0
  -26.1131   24.0081   -9.7143 C   0  0  0  0  0  0
  -25.3322   23.3169   -8.2194 C   0  0  0  0  0  0
  -24.5324   21.6561   -8.3111 C   0  0  0  0  0  0
  -21.3601   18.3751  -11.7718 C   0  0  0  0  0  0
  -23.4525   16.7808  -12.5675 Br  0  0  0  0  0  0
  -20.0075   18.6032  -12.5949 C   0  0  0  0  0  0
  -19.3455   19.8970  -13.0346 C   0  0  0  0  0  0
  -18.2288   20.0448  -14.0283 C   0  0  0  0  0  0
  -17.7115   19.2128  -14.8807 N   0  0  0  0  0  0
  -18.3021   18.0170  -15.0476 N   0  0  0  0  0  0
  -17.7539   16.9624  -15.6995 C   0  0  0  0  0  0
  -16.5387   17.0141  -16.2027 N   0  0  0  0  0  0
  -16.2458   15.8428  -16.8694 C   0  0  0  0  0  0
  -17.2344   14.8860  -16.8556 C   0  0  0  0  0  0
  -18.5912   15.4790  -15.9985 S   0  0  0  0  0  0
  -19.6971   21.1536  -12.5668 C   0  0  0  0  0  0
  -19.2775   17.9105  -14.7838 H   0  0  0  0  0  0
  1  2  1  0  0  0
  2  3  1  0  0  0
  3  4  2  0  0  0
  3 25  1  0  0  0
  4  5  1  0  0  0
  4 13  1  0  0  0
  5  6  1  0  0  0
  6  7  1  0  0  0
  7  8  2  0  0  0
  7 12  1  0  0  0
  8  9  1  0  0  0
  9 10  2  0  0  0
 10 11  1  0  0  0
 11 12  2  0  0  0
 13 14  1  0  0  0
 13 15  2  0  0  0
 15 16  1  0  0  0
 16 17  1  0  0  0
 16 25  2  0  0  0
 17 18  2  0  0  0
 18 19  1  0  0  0
 19 20  1  0  0  0
 19 26  1  0  0  0
 20 21  2  0  0  0
 20 24  1  0  0  0
 21 22  1  0  0  0
 22 23  2  0  0  0
 23 24  1  0  0  0
M  END
>  <CHROM.0>
-179.47603855,63.96453564,-46.80638194,64.65696045,169.16845106,58.86836034
83.05220359,-163.65137403

>  <CHROM.1>
-101.59569795,163.92869234,-178.15042324,89.82355094,12.36621229,-167.07407409
2.25060503,-21.37002949,19.12288166,-12.71426267,-2.37413270,-0.45097199
-2.76340605

>  <Name>
F3285-1602

>  <RI>
2.18832e+07

>  <Rbt.Current_Directory>
/home/adria/Escritorio/rDock_CMTR_LC/2pxcA_model/inputs_sah

>  <Rbt.Executable>
rbdock ($Id: //depot/dev/client3/rdock/2013.1/src/exe/rbdock.cxx#4 $)

>  <Rbt.Library>
libRbt.so (2013.1, Build901 2013/11/27)

>  <Rbt.Parameter_File>
/home/adria/Escritorio/rDock_2013.1_src/data/scripts/dock.prm

>  <Rbt.Receptor>
sah_rdock.prm

>  <SCORE>
-277.755

>  <SCORE.INTER>
-8.0061

>  <SCORE.INTER.CONST>
1

>  <SCORE.INTER.POLAR>
0

>  <SCORE.INTER.REPUL>
0

>  <SCORE.INTER.ROT>
7

>  <SCORE.INTER.VDW>
-20.4061

>  <SCORE.INTER.norm>
-0.320244

>  <SCORE.INTRA>
-268.005

>  <SCORE.INTRA.DIHEDRAL>
-9.18697

>  <SCORE.INTRA.DIHEDRAL.0>
16.6465

>  <SCORE.INTRA.POLAR>
0

>  <SCORE.INTRA.POLAR.0>
0

>  <SCORE.INTRA.REPUL>
-0.00203294

>  <SCORE.INTRA.REPUL.0>
0.00203294

>  <SCORE.INTRA.VDW>
-263.401

>  <SCORE.INTRA.VDW.0>
261.865

>  <SCORE.INTRA.norm>
-10.7202

>  <SCORE.RESTR>
0

>  <SCORE.RESTR.CAVITY>
0

>  <SCORE.RESTR.norm>
0

>  <SCORE.SYSTEM>
-1.74456

>  <SCORE.SYSTEM.CONST>
0

>  <SCORE.SYSTEM.DIHEDRAL>
2.70452

>  <SCORE.SYSTEM.POLAR>
-3.53742

>  <SCORE.SYSTEM.VDW>
8.93039

>  <SCORE.SYSTEM.norm>
-0.0697825

>  <SCORE.heavy>
25

>  <SCORE.norm>
-11.1102

$$$$
F3285-1602
  rDOCK(R)          3D
libRbt.so/2013.1/901 2013/11/27
 26 28  0  0  0  0  0  0  0  0999 V2000
  -19.5723   22.0033  -15.2731 C   0  0  0  0  0  0
  -19.4721   22.1613  -13.8330 O   0  0  0  0  0  0
  -20.6743   22.3879  -13.1421 C   0  0  0  0  0  0
  -21.7524   21.3109  -13.0502 C   0  0  0  0  0  0
  -21.0256   20.1773  -13.5272 O   0  0  0  0  0  0
  -21.7323   18.9867  -13.5440 C   0  0  0  0  0  0
  -21.0999   18.3309  -14.6743 C   0  0  0  0  0  0
  -20.3857   16.8256  -13.9774 C   0  0  0  0  0  0
  -19.0535   16.0337  -14.7402 C   0  0  0  0  0  0
  -18.3215   16.6986  -16.1880 C   0  0  0  0  0  0
  -18.9560   18.2108  -16.9836 C   0  0  0  0  0  0
  -20.3592   19.1167  -16.1982 C   0  0  0  0  0  0
  -23.2517   21.3226  -12.2609 C   0  0  0  0  0  0
  -24.2590   19.2557  -10.7556 Br  0  0  0  0  0  0
  -23.1606   22.8490  -11.7909 C   0  0  0  0  0  0
  -21.9663   23.7862  -11.7628 C   0  0  0  0  0  0
  -21.8795   25.1137  -11.0655 C   0  0  0  0  0  0
  -22.4003   25.5462   -9.9572 N   0  0  0  0  0  0
  -23.0550   24.6723   -9.1734 N   0  0  0  0  0  0
  -24.3487   24.3007   -9.3337 C   0  0  0  0  0  0
  -25.0694   24.7202  -10.3521 N   0  0  0  0  0  0
  -26.3636   24.2553  -10.2471 C   0  0  0  0  0  0
  -26.6246   23.4603   -9.1550 C   0  0  0  0  0  0
  -25.2072   23.3059   -8.2093 S   0  0  0  0  0  0
  -20.7579   23.5319  -12.3926 C   0  0  0  0  0  0
  -22.6079   24.3479   -8.3206 H   0  0  0  0  0  0
  1  2  1  0  0  0
  2  3  1  0  0  0
  3  4  2  0  0  0
  3 25  1  0  0  0
  4  5  1  0  0  0
  4 13  1  0  0  0
  5  6  1  0  0  0
  6  7  1  0  0  0
  7  8  2  0  0  0
  7 12  1  0  0  0
  8  9  1  0  0  0
  9 10  2  0  0  0
 10 11  1  0  0  0
 11 12  2  0  0  0
 13 14  1  0  0  0
 13 15  2  0  0  0
 15 16  1  0  0  0
 16 17  1  0  0  0
 16 25  2  0  0  0
 17 18  2  0  0  0
 18 19  1  0  0  0
 19 20  1  0  0  0
 19 26  1  0  0  0
 20 21  2  0  0  0
 20 24  1  0  0  0
 21 22  1  0  0  0
 22 23  2  0  0  0
 23 24  1  0  0  0
M  END
>  <CHROM.0>
166.26158958,65.89575171,-47.49249616,67.55314486,-30.27103564,-174.90491454
-156.89963102,-158.45402469

>  <CHROM.1>
67.07329870,178.67077417,149.24729454,119.28652536,33.99513485,-83.37383333
4.23635406,-22.50270400,21.26752969,-12.00293178,-0.79746803,0.71570045,0.23375597

>  <Name>
F3285-1602

>  <RI>
2.18832e+07

>  <Rbt.Current_Directory>
/home/adria/Escritorio/rDock_CMTR_LC/2pxcA_model/inputs_sah

>  <Rbt.Executable>
rbdock ($Id: //depot/dev/client3/rdock/2013.1/src/exe/rbdock.cxx#4 $)

>  <Rbt.Library>
libRbt.so (2013.1, Build901 2013/11/27)

>  <Rbt.Parameter_File>
/home/adria/Escritorio/rDock_2013.1_src/data/scripts/dock.prm

>  <Rbt.Receptor>
sah_rdock.prm

>  <SCORE>
-280.706

>  <SCORE.INTER>
-10.8303

>  <SCORE.INTER.CONST>
1

>  <SCORE.INTER.POLAR>
-1.18699

>  <SCORE.INTER.REPUL>
0

>  <SCORE.INTER.ROT>
7

>  <SCORE.INTER.VDW>
-19.1945

>  <SCORE.INTER.norm>
-0.43321

>  <SCORE.INTRA>
-263.503

>  <SCORE.INTRA.DIHEDRAL>
2.10149

>  <SCORE.INTRA.DIHEDRAL.0>
16.6465

>  <SCORE.INTRA.POLAR>
0

>  <SCORE.INTRA.POLAR.0>
0

>  <SCORE.INTRA.REPUL>
-0.00203294

>  <SCORE.INTRA.REPUL.0>
0.00203294

>  <SCORE.INTRA.VDW>
-264.543

>  <SCORE.INTRA.VDW.0>
261.865

>  <SCORE.INTRA.norm>
-10.5401

>  <SCORE.RESTR>
0

>  <SCORE.RESTR.CAVITY>
0

>  <SCORE.RESTR.norm>
0

>  <SCORE.SYSTEM>
-6.37256

>  <SCORE.SYSTEM.CONST>
0

>  <SCORE.SYSTEM.DIHEDRAL>
7.13659

>  <SCORE.SYSTEM.POLAR>
-3.70311

>  <SCORE.SYSTEM.VDW>
2.64972

>  <SCORE.SYSTEM.norm>
-0.254902

>  <SCORE.heavy>
25

>  <SCORE.norm>
-11.2282

$$$$
F3285-1602
  rDOCK(R)          3D
libRbt.so/2013.1/901 2013/11/27
 26 28  0  0  0  0  0  0  0  0999 V2000
  -19.4713   20.6306  -12.4159 C   0  0  0  0  0  0
  -20.7524   20.1724  -12.9235 O   0  0  0  0  0  0
  -20.7510   19.6068  -14.2096 C   0  0  0  0  0  0
  -21.6978   18.4668  -14.5766 C   0  0  0  0  0  0
  -22.5809   18.4935  -13.4538 O   0  0  0  0  0  0
  -23.4779   17.4412  -13.3826 C   0  0  0  0  0  0
  -24.2880   17.8726  -12.2577 C   0  0  0  0  0  0
  -25.8233   18.4567  -13.0084 C   0  0  0  0  0  0
  -26.8355   19.5978  -12.1978 C   0  0  0  0  0  0
  -26.3747   20.2625  -10.6422 C   0  0  0  0  0  0
  -24.8499   19.7483   -9.7860 C   0  0  0  0  0  0
  -23.7140   18.5537  -10.6161 C   0  0  0  0  0  0
  -21.9130   17.6473  -16.0440 C   0  0  0  0  0  0
  -24.3447   16.9950  -17.1457 Br  0  0  0  0  0  0
  -20.7234   18.3956  -16.8081 C   0  0  0  0  0  0
  -19.9606   19.6508  -16.4232 C   0  0  0  0  0  0
  -19.0448   20.4534  -17.3026 C   0  0  0  0  0  0
  -17.9942   20.1228  -17.9906 N   0  0  0  0  0  0
  -17.6686   18.8215  -18.0768 N   0  0  0  0  0  0
  -16.4228   18.3176  -17.8994 C   0  0  0  0  0  0
  -16.1642   17.0367  -18.0575 N   0  0  0  0  0  0
  -14.8446   16.7732  -17.7545 C   0  0  0  0  0  0
  -14.0893   17.8620  -17.3845 C   0  0  0  0  0  0
  -15.0681   19.2652  -17.3917 S   0  0  0  0  0  0
  -20.0125   20.2444  -15.1716 C   0  0  0  0  0  0
  -18.3630   18.1638  -18.4200 H   0  0  0  0  0  0
  1  2  1  0  0  0
  2  3  1  0  0  0
  3  4  2  0  0  0
  3 25  1  0  0  0
  4  5  1  0  0  0
  4 13  1  0  0  0
  5  6  1  0  0  0
  6  7  1  0  0  0
  7  8  2  0  0  0
  7 12  1  0  0  0
  8  9  1  0  0  0
  9 10  2  0  0  0
 10 11  1  0  0  0
 11 12  2  0  0  0
 13 14  1  0  0  0
 13 15  2  0  0  0
 15 16  1  0  0  0
 16 17  1  0  0  0
 16 25  2  0  0  0
 17 18  2  0  0  0
 18 19  1  0  0  0
 19 20  1  0  0  0
 19 26  1  0  0  0
 20 21  2  0  0  0
 20 24  1  0  0  0
 21 22  1  0  0  0
 22 23  2  0  0  0
 23 24  1  0  0  0
M  END
>  <CHROM.0>
-178.26240328,-72.78516790,-8.51951074,63.51079625,-29.95196632,-179.96301794
-159.09836355,-161.12689046

>  <CHROM.1>
146.13482905,-171.57326289,-173.40201051,104.57835695,-55.39790692,-133.47467819
-176.92203434,-21.05160625,18.57381826,-15.37144762,-0.43330298,0.21416355
1.13776897

>  <Name>
F3285-1602

>  <RI>
2.18832e+07

>  <Rbt.Current_Directory>
/home/adria/Escritorio/rDock_CMTR_LC/2pxcA_model/inputs_sah

>  <Rbt.Executable>
rbdock ($Id: //depot/dev/client3/rdock/2013.1/src/exe/rbdock.cxx#4 $)

>  <Rbt.Library>
libRbt.so (2013.1, Build901 2013/11/27)

>  <Rbt.Parameter_File>
/home/adria/Escritorio/rDock_2013.1_src/data/scripts/dock.prm

>  <Rbt.Receptor>
sah_rdock.prm

>  <SCORE>
-279.189

>  <SCORE.INTER>
-9.37513

>  <SCORE.INTER.CONST>
1

>  <SCORE.INTER.POLAR>
-0.975558

>  <SCORE.INTER.REPUL>
0

>  <SCORE.INTER.ROT>
7

>  <SCORE.INTER.VDW>
-18.4582

>  <SCORE.INTER.norm>
-0.375005

>  <SCORE.INTRA>
-262.651

>  <SCORE.INTRA.DIHEDRAL>
-0.387774

>  <SCORE.INTRA.DIHEDRAL.0>
16.6465

>  <SCORE.INTRA.POLAR>
0

>  <SCORE.INTRA.POLAR.0>
0

>  <SCORE.INTRA.REPUL>
-0.00203294

>  <SCORE.INTRA.REPUL.0>
0.00203294

>  <SCORE.INTRA.VDW>
-262.447

>  <SCORE.INTRA.VDW.0>
261.865

>  <SCORE.INTRA.norm>
-10.506

>  <SCORE.RESTR>
0

>  <SCORE.RESTR.CAVITY>
0

>  <SCORE.RESTR.norm>
0

>  <SCORE.SYSTEM>
-7.16325

>  <SCORE.SYSTEM.CONST>
0

>  <SCORE.SYSTEM.DIHEDRAL>
9.3624

>  <SCORE.SYSTEM.POLAR>
-4.59467

>  <SCORE.SYSTEM.REPUL>
0.0381496

>  <SCORE.SYSTEM.VDW>
3.58666

>  <SCORE.SYSTEM.norm>
-0.28653

>  <SCORE.heavy>
25

>  <SCORE.norm>
-11.1676

$$$$
F3285-1602
  rDOCK(R)          3D
libRbt.so/2013.1/901 2013/11/27
 26 28  0  0  0  0  0  0  0  0999 V2000
  -25.5173   20.2041  -14.0152 C   0  0  0  0  0  0
  -24.6982   20.4742  -12.8469 O   0  0  0  0  0  0
  -23.6663   21.4138  -13.0085 C   0  0  0  0  0  0
  -22.2205   20.9754  -13.2278 C   0  0  0  0  0  0
  -22.4101   19.5843  -13.4918 O   0  0  0  0  0  0
  -21.3258   18.9377  -14.0604 C   0  0  0  0  0  0
  -22.0061   17.8529  -14.7446 C   0  0  0  0  0  0
  -21.7795   18.2170  -16.4989 C   0  0  0  0  0  0
  -22.8719   17.6012  -17.6867 C   0  0  0  0  0  0
  -24.2648   16.6452  -17.2175 C   0  0  0  0  0  0
  -24.5967   16.2117  -15.4784 C   0  0  0  0  0  0
  -23.4804   16.8654  -14.1620 C   0  0  0  0  0  0
  -20.8201   21.8957  -13.4790 C   0  0  0  0  0  0
  -18.8844   21.3452  -15.3506 Br  0  0  0  0  0  0
  -21.5351   23.3126  -13.2788 C   0  0  0  0  0  0
  -23.0133   23.6588  -13.2542 C   0  0  0  0  0  0
  -23.6181   25.0316  -13.3316 C   0  0  0  0  0  0
  -23.8905   25.9115  -12.4161 N   0  0  0  0  0  0
  -23.4813   25.6744  -11.1580 N   0  0  0  0  0  0
  -22.2185   25.8612  -10.7020 C   0  0  0  0  0  0
  -21.3104   26.4932  -11.4151 N   0  0  0  0  0  0
  -20.0976   26.4897  -10.7584 C   0  0  0  0  0  0
  -20.0870   25.8708   -9.5296 C   0  0  0  0  0  0
  -21.6440   25.2481   -9.1903 S   0  0  0  0  0  0
  -24.0336   22.7254  -13.1586 C   0  0  0  0  0  0
  -24.1141   25.2044  -10.5167 H   0  0  0  0  0  0
  1  2  1  0  0  0
  2  3  1  0  0  0
  3  4  2  0  0  0
  3 25  1  0  0  0
  4  5  1  0  0  0
  4 13  1  0  0  0
  5  6  1  0  0  0
  6  7  1  0  0  0
  7  8  2  0  0  0
  7 12  1  0  0  0
  8  9  1  0  0  0
  9 10  2  0  0  0
 10 11  1  0  0  0
 11 12  2  0  0  0
 13 14  1  0  0  0
 13 15  2  0  0  0
 15 16  1  0  0  0
 16 17  1  0  0  0
 16 25  2  0  0  0
 17 18  2  0  0  0
 18 19  1  0  0  0
 19 20  1  0  0  0
 19 26  1  0  0  0
 20 21  2  0  0  0
 20 24  1  0  0  0
 21 22  1  0  0  0
 22 23  2  0  0  0
 23 24  1  0  0  0
M  END
>  <CHROM.0>
-61.08185288,63.32725709,-42.01269897,-60.94173651,167.84267054,-59.58061019
-156.79204832,-167.58305057

>  <CHROM.1>
-100.03335750,164.63200059,-154.25924943,112.14002967,-87.11556507,78.90889885
10.57914106,-21.94913413,21.86495983,-13.45917778,1.66238778,-0.30223212
-2.53656446

>  <Name>
F3285-1602

>  <RI>
2.18832e+07

>  <Rbt.Current_Directory>
/home/adria/Escritorio/rDock_CMTR_LC/2pxcA_model/inputs_sah

>  <Rbt.Executable>
rbdock ($Id: //depot/dev/client3/rdock/2013.1/src/exe/rbdock.cxx#4 $)

>  <Rbt.Library>
libRbt.so (2013.1, Build901 2013/11/27)

>  <Rbt.Parameter_File>
/home/adria/Escritorio/rDock_2013.1_src/data/scripts/dock.prm

>  <Rbt.Receptor>
sah_rdock.prm

>  <SCORE>
-272.438

>  <SCORE.INTER>
-11.6883

>  <SCORE.INTER.CONST>
1

>  <SCORE.INTER.POLAR>
-0.945473

>  <SCORE.INTER.REPUL>
0

>  <SCORE.INTER.ROT>
7

>  <SCORE.INTER.VDW>
-20.8737

>  <SCORE.INTER.norm>
-0.467533

>  <SCORE.INTRA>
-258.665

>  <SCORE.INTRA.DIHEDRAL>
12.6216

>  <SCORE.INTRA.DIHEDRAL.0>
16.6465

>  <SCORE.INTRA.POLAR>
0

>  <SCORE.INTRA.POLAR.0>
0

>  <SCORE.INTRA.REPUL>
-0.00203294

>  <SCORE.INTRA.REPUL.0>
0.00203294

>  <SCORE.INTRA.VDW>
-264.966

>  <SCORE.INTRA.VDW.0>
261.865

>  <SCORE.INTRA.norm>
-10.3466

>  <SCORE.RESTR>
0

>  <SCORE.RESTR.CAVITY>
0

>  <SCORE.RESTR.norm>
0

>  <SCORE.SYSTEM>
-2.08469

>  <SCORE.SYSTEM.CONST>
0

>  <SCORE.SYSTEM.DIHEDRAL>
2.90635

>  <SCORE.SYSTEM.POLAR>
-3.64534

>  <SCORE.SYSTEM.VDW>
8.85631

>  <SCORE.SYSTEM.norm>
-0.0833875

>  <SCORE.heavy>
25

>  <SCORE.norm>
-10.8975

$$$$
F3285-1602
  rDOCK(R)          3D
libRbt.so/2013.1/901 2013/11/27
 26 28  0  0  0  0  0  0  0  0999 V2000
  -27.8696   21.9941  -14.5647 C   0  0  0  0  0  0
  -26.6814   21.1962  -14.3186 O   0  0  0  0  0  0
  -25.7101   21.7617  -13.4756 C   0  0  0  0  0  0
  -25.1740   21.0052  -12.2627 C   0  0  0  0  0  0
  -25.6884   19.6986  -12.5258 O   0  0  0  0  0  0
  -24.9203   18.6530  -12.0422 C   0  0  0  0  0  0
  -24.1844   18.3008  -13.2431 C   0  0  0  0  0  0
  -22.6379   17.5968  -12.6312 C   0  0  0  0  0  0
  -21.2131   17.5884  -13.6075 C   0  0  0  0  0  0
  -21.2135   18.3112  -15.2050 C   0  0  0  0  0  0
  -22.7137   19.0502  -15.9299 C   0  0  0  0  0  0
  -24.2590   19.1143  -14.9227 C   0  0  0  0  0  0
  -23.9962   21.4452  -11.1267 C   0  0  0  0  0  0
  -22.0105   19.7917  -10.1910 Br  0  0  0  0  0  0
  -23.7741   22.9196  -11.7061 C   0  0  0  0  0  0
  -24.2115   23.5177  -13.0314 C   0  0  0  0  0  0
  -23.7466   24.8137  -13.6318 C   0  0  0  0  0  0
  -22.7944   25.6312  -13.2979 N   0  0  0  0  0  0
  -21.9510   25.2658  -12.3172 N   0  0  0  0  0  0
  -21.2808   24.0886  -12.2655 C   0  0  0  0  0  0
  -20.5596   23.7470  -11.2188 N   0  0  0  0  0  0
  -19.9299   22.5407  -11.4438 C   0  0  0  0  0  0
  -20.1896   21.9503  -12.6590 C   0  0  0  0  0  0
  -21.2411   22.9496  -13.5663 S   0  0  0  0  0  0
  -25.1230   22.9273  -13.8928 C   0  0  0  0  0  0
  -21.8899   25.8423  -11.4827 H   0  0  0  0  0  0
  1  2  1  0  0  0
  2  3  1  0  0  0
  3  4  2  0  0  0
  3 25  1  0  0  0
  4  5  1  0  0  0
  4 13  1  0  0  0
  5  6  1  0  0  0
  6  7  1  0  0  0
  7  8  2  0  0  0
  7 12  1  0  0  0
  8  9  1  0  0  0
  9 10  2  0  0  0
 10 11  1  0  0  0
 11 12  2  0  0  0
 13 14  1  0  0  0
 13 15  2  0  0  0
 15 16  1  0  0  0
 16 17  1  0  0  0
 16 25  2  0  0  0
 17 18  2  0  0  0
 18 19  1  0  0  0
 19 20  1  0  0  0
 19 26  1  0  0  0
 20 21  2  0  0  0
 20 24  1  0  0  0
 21 22  1  0  0  0
 22 23  2  0  0  0
 23 24  1  0  0  0
M  END
>  <CHROM.0>
-59.38032676,70.51904000,-164.08104056,60.08727588,16.65730654,71.47327137
84.08555845,-165.06871840

>  <CHROM.1>
127.20066019,149.88184238,-97.53902584,152.27216567,9.55938511,51.52357427
-174.03630628,-23.05930553,21.25401028,-12.58776825,1.90606670,0.50585161
3.04761815

>  <Name>
F3285-1602

>  <RI>
2.18832e+07

>  <Rbt.Current_Directory>
/home/adria/Escritorio/rDock_CMTR_LC/2pxcA_model/inputs_sah

>  <Rbt.Executable>
rbdock ($Id: //depot/dev/client3/rdock/2013.1/src/exe/rbdock.cxx#4 $)

>  <Rbt.Library>
libRbt.so (2013.1, Build901 2013/11/27)

>  <Rbt.Parameter_File>
/home/adria/Escritorio/rDock_2013.1_src/data/scripts/dock.prm

>  <Rbt.Receptor>
sah_rdock.prm

>  <SCORE>
-267.309

>  <SCORE.INTER>
-7.1367

>  <SCORE.INTER.CONST>
1

>  <SCORE.INTER.POLAR>
-0.894427

>  <SCORE.INTER.REPUL>
0

>  <SCORE.INTER.ROT>
7

>  <SCORE.INTER.VDW>
-16.4956

>  <SCORE.INTER.norm>
-0.285468

>  <SCORE.INTRA>
-265.754

>  <SCORE.INTRA.DIHEDRAL>
-1.48132

>  <SCORE.INTRA.DIHEDRAL.0>
16.6465

>  <SCORE.INTRA.POLAR>
0

>  <SCORE.INTRA.POLAR.0>
0

>  <SCORE.INTRA.REPUL>
-0.00203294

>  <SCORE.INTRA.REPUL.0>
0.00203294

>  <SCORE.INTRA.VDW>
-265.003

>  <SCORE.INTRA.VDW.0>
261.865

>  <SCORE.INTRA.norm>
-10.6302

>  <SCORE.RESTR>
0.309332

>  <SCORE.RESTR.CAVITY>
0.309332

>  <SCORE.RESTR.norm>
0.0123733

>  <SCORE.SYSTEM>
5.2724

>  <SCORE.SYSTEM.CONST>
0

>  <SCORE.SYSTEM.DIHEDRAL>
8.92521

>  <SCORE.SYSTEM.POLAR>
-3.51323

>  <SCORE.SYSTEM.REPUL>
0.00013715

>  <SCORE.SYSTEM.VDW>
12.7541

>  <SCORE.SYSTEM.norm>
0.210896

>  <SCORE.heavy>
25

>  <SCORE.norm>
-10.6924

$$$$
F3285-1602
  rDOCK(R)          3D
libRbt.so/2013.1/901 2013/11/27
 26 28  0  0  0  0  0  0  0  0999 V2000
  -20.4869   23.7955  -11.9017 C   0  0  0  0  0  0
  -20.7741   23.2968  -13.2350 O   0  0  0  0  0  0
  -20.1638   22.0838  -13.5954 C   0  0  0  0  0  0
  -20.5807   20.7634  -12.9525 C   0  0  0  0  0  0
  -21.7807   21.1666  -12.2905 O   0  0  0  0  0  0
  -22.6669   20.1434  -11.9988 C   0  0  0  0  0  0
  -23.5868   20.8453  -11.1220 C   0  0  0  0  0  0
  -23.2195   20.1985   -9.4762 C   0  0  0  0  0  0
  -24.3987   20.2459   -8.2149 C   0  0  0  0  0  0
  -26.0072   20.8778   -8.5112 C   0  0  0  0  0  0
  -26.4938   21.5592  -10.1302 C   0  0  0  0  0  0
  -25.2855   21.5090  -11.5246 C   0  0  0  0  0  0
  -20.0325   19.1846  -13.2320 C   0  0  0  0  0  0
  -21.6451   16.9707  -13.4581 Br  0  0  0  0  0  0
  -18.8901   19.6052  -14.2698 C   0  0  0  0  0  0
  -18.6747   20.9217  -14.9951 C   0  0  0  0  0  0
  -17.7507   21.1715  -16.1527 C   0  0  0  0  0  0
  -16.9960   20.3745  -16.8468 N   0  0  0  0  0  0
  -17.0894   19.0517  -16.6277 N   0  0  0  0  0  0
  -16.0674   18.1691  -16.7463 C   0  0  0  0  0  0
  -14.8416   18.5609  -17.0227 N   0  0  0  0  0  0
  -14.0080   17.4700  -17.1546 C   0  0  0  0  0  0
  -14.5971   16.2425  -16.9567 C   0  0  0  0  0  0
  -16.2602   16.4553  -16.6164 S   0  0  0  0  0  0
  -19.3254   22.1041  -14.6791 C   0  0  0  0  0  0
  -18.0079   18.6422  -16.4826 H   0  0  0  0  0  0
  1  2  1  0  0  0
  2  3  1  0  0  0
  3  4  2  0  0  0
  3 25  1  0  0  0
  4  5  1  0  0  0
  4 13  1  0  0  0
  5  6  1  0  0  0
  6  7  1  0  0  0
  7  8  2  0  0  0
  7 12  1  0  0  0
  8  9  1  0  0  0
  9 10  2  0  0  0
 10 11  1  0  0  0
 11 12  2  0  0  0
 13 14  1  0  0  0
 13 15  2  0  0  0
 15 16  1  0  0  0
 16 17  1  0  0  0
 16 25  2  0  0  0
 17 18  2  0  0  0
 18 19  1  0  0  0
 19 20  1  0  0  0
 19 26  1  0  0  0
 20 21  2  0  0  0
 20 24  1  0  0  0
 21 22  1  0  0  0
 22 23  2  0  0  0
 23 24  1  0  0  0
M  END
>  <CHROM.0>
-63.02162291,-171.23671175,-43.87647916,66.62453410,-29.43869655,63.75771701
-156.00689492,-163.23417880

>  <CHROM.1>
69.51012332,158.14396632,168.89485614,-107.25348348,4.19907942,-148.06827138
3.99879094,-20.14149977,19.47808263,-13.70897207,-2.80030835,-0.62164823
-3.03785173

>  <Name>
F3285-1602

>  <RI>
2.18832e+07

>  <Rbt.Current_Directory>
/home/adria/Escritorio/rDock_CMTR_LC/2pxcA_model/inputs_sah

>  <Rbt.Executable>
rbdock ($Id: //depot/dev/client3/rdock/2013.1/src/exe/rbdock.cxx#4 $)

>  <Rbt.Library>
libRbt.so (2013.1, Build901 2013/11/27)

>  <Rbt.Parameter_File>
/home/adria/Escritorio/rDock_2013.1_src/data/scripts/dock.prm

>  <Rbt.Receptor>
sah_rdock.prm

>  <SCORE>
-284.911

>  <SCORE.INTER>
-10.2967

>  <SCORE.INTER.CONST>
1

>  <SCORE.INTER.POLAR>
-0.834386

>  <SCORE.INTER.REPUL>
0

>  <SCORE.INTER.ROT>
7

>  <SCORE.INTER.VDW>
-19.8598

>  <SCORE.INTER.norm>
-0.411869

>  <SCORE.INTRA>
-268.198

>  <SCORE.INTRA.DIHEDRAL>
-8.60969

>  <SCORE.INTRA.DIHEDRAL.0>
16.6465

>  <SCORE.INTRA.POLAR>
0

>  <SCORE.INTRA.POLAR.0>
0

>  <SCORE.INTRA.REPUL>
-0.00203294

>  <SCORE.INTRA.REPUL.0>
0.00203294

>  <SCORE.INTRA.VDW>
-263.883

>  <SCORE.INTRA.VDW.0>
261.865

>  <SCORE.INTRA.norm>
-10.7279

>  <SCORE.RESTR>
0

>  <SCORE.RESTR.CAVITY>
0

>  <SCORE.RESTR.norm>
0

>  <SCORE.SYSTEM>
-6.41706

>  <SCORE.SYSTEM.CONST>
0

>  <SCORE.SYSTEM.DIHEDRAL>
6.61924

>  <SCORE.SYSTEM.POLAR>
-3.78062

>  <SCORE.SYSTEM.VDW>
3.12744

>  <SCORE.SYSTEM.norm>
-0.256682

>  <SCORE.heavy>
25

>  <SCORE.norm>
-11.3965

$$$$
F3285-1602
  rDOCK(R)          3D
libRbt.so/2013.1/901 2013/11/27
 26 28  0  0  0  0  0  0  0  0999 V2000
  -25.8637   21.5027  -14.8104 C   0  0  0  0  0  0
  -25.5001   20.8911  -13.5445 O   0  0  0  0  0  0
  -24.3890   21.4376  -12.8806 C   0  0  0  0  0  0
  -23.1388   20.6051  -12.6073 C   0  0  0  0  0  0
  -23.4016   19.4676  -13.4307 O   0  0  0  0  0  0
  -22.4882   18.4331  -13.3179 C   0  0  0  0  0  0
  -22.9081   17.6000  -14.4303 C   0  0  0  0  0  0
  -21.9587   18.2179  -15.8369 C   0  0  0  0  0  0
  -22.5133   17.9910  -17.4569 C   0  0  0  0  0  0
  -24.0431   17.1978  -17.7808 C   0  0  0  0  0  0
  -25.0872   16.5313  -16.4436 C   0  0  0  0  0  0
  -24.5606   16.7694  -14.6907 C   0  0  0  0  0  0
  -21.6757   21.0317  -11.8667 C   0  0  0  0  0  0
  -19.1805   20.3336  -12.7828 Br  0  0  0  0  0  0
  -22.1344   22.5128  -11.4731 C   0  0  0  0  0  0
  -23.3270   23.3197  -11.9549 C   0  0  0  0  0  0
  -23.5574   24.7910  -11.7588 C   0  0  0  0  0  0
  -23.1202   25.6250  -10.8645 N   0  0  0  0  0  0
  -22.1963   25.1971   -9.9871 N   0  0  0  0  0  0
  -20.8839   25.5353  -10.0119 C   0  0  0  0  0  0
  -20.4322   26.5048  -10.7790 N   0  0  0  0  0  0
  -19.0608   26.6028  -10.6700 C   0  0  0  0  0  0
  -18.4674   25.7180   -9.7994 C   0  0  0  0  0  0
  -19.6631   24.7085   -9.1078 S   0  0  0  0  0  0
  -24.3931   22.7909  -12.6657 C   0  0  0  0  0  0
  -22.4496   24.4706   -9.3234 H   0  0  0  0  0  0
  1  2  1  0  0  0
  2  3  1  0  0  0
  3  4  2  0  0  0
  3 25  1  0  0  0
  4  5  1  0  0  0
  4 13  1  0  0  0
  5  6  1  0  0  0
  6  7  1  0  0  0
  7  8  2  0  0  0
  7 12  1  0  0  0
  8  9  1  0  0  0
  9 10  2  0  0  0
 10 11  1  0  0  0
 11 12  2  0  0  0
 13 14  1  0  0  0
 13 15  2  0  0  0
 15 16  1  0  0  0
 16 17  1  0  0  0
 16 25  2  0  0  0
 17 18  2  0  0  0
 18 19  1  0  0  0
 19 20  1  0  0  0
 19 26  1  0  0  0
 20 21  2  0  0  0
 20 24  1  0  0  0
 21 22  1  0  0  0
 22 23  2  0  0  0
 23 24  1  0  0  0
M  END
>  <CHROM.0>
-67.88947708,66.48196291,-127.52898147,61.44665842,-29.52241388,-176.92926503
-158.26228103,-161.11594673

>  <CHROM.1>
-117.98759372,-174.32140747,-169.98364512,89.04365935,-24.65462420,106.12722688
11.71854280,-21.92161525,21.58829041,-12.66253483,1.92861256,0.21705319,-2.58765937

>  <Name>
F3285-1602

>  <RI>
2.18832e+07

>  <Rbt.Current_Directory>
/home/adria/Escritorio/rDock_CMTR_LC/2pxcA_model/inputs_sah

>  <Rbt.Executable>
rbdock ($Id: //depot/dev/client3/rdock/2013.1/src/exe/rbdock.cxx#4 $)

>  <Rbt.Library>
libRbt.so (2013.1, Build901 2013/11/27)

>  <Rbt.Parameter_File>
/home/adria/Escritorio/rDock_2013.1_src/data/scripts/dock.prm

>  <Rbt.Receptor>
sah_rdock.prm

>  <SCORE>
-276.152

>  <SCORE.INTER>
-5.24626

>  <SCORE.INTER.CONST>
1

>  <SCORE.INTER.POLAR>
-0.0680731

>  <SCORE.INTER.REPUL>
0

>  <SCORE.INTER.ROT>
7

>  <SCORE.INTER.VDW>
-17.4148

>  <SCORE.INTER.norm>
-0.20985

>  <SCORE.INTRA>
-264.128

>  <SCORE.INTRA.DIHEDRAL>
-0.825913

>  <SCORE.INTRA.DIHEDRAL.0>
16.6465

>  <SCORE.INTRA.POLAR>
0

>  <SCORE.INTRA.POLAR.0>
0

>  <SCORE.INTRA.REPUL>
-0.00203294

>  <SCORE.INTRA.REPUL.0>
0.00203294

>  <SCORE.INTRA.VDW>
-263.705

>  <SCORE.INTRA.VDW.0>
261.865

>  <SCORE.INTRA.norm>
-10.5651

>  <SCORE.RESTR>
0

>  <SCORE.RESTR.CAVITY>
0

>  <SCORE.RESTR.norm>
0

>  <SCORE.SYSTEM>
-6.7778

>  <SCORE.SYSTEM.CONST>
0

>  <SCORE.SYSTEM.DIHEDRAL>
9.24211

>  <SCORE.SYSTEM.POLAR>
-4.25329

>  <SCORE.SYSTEM.VDW>
3.06232

>  <SCORE.SYSTEM.norm>
-0.271112

>  <SCORE.heavy>
25

>  <SCORE.norm>
-11.0461

$$$$
F3285-1602
  rDOCK(R)          3D
libRbt.so/2013.1/901 2013/11/27
 26 28  0  0  0  0  0  0  0  0999 V2000
  -23.8673   17.7960  -11.0225 C   0  0  0  0  0  0
  -23.9177   17.9685  -12.4636 O   0  0  0  0  0  0
  -22.7883   18.5485  -13.0653 C   0  0  0  0  0  0
  -22.6480   20.0630  -13.1958 C   0  0  0  0  0  0
  -23.7057   20.4948  -12.3380 O   0  0  0  0  0  0
  -23.4507   21.6525  -11.6225 C   0  0  0  0  0  0
  -24.7635   21.8932  -11.0511 C   0  0  0  0  0  0
  -25.5321   23.0782  -12.1765 C   0  0  0  0  0  0
  -26.8038   24.1190  -11.6444 C   0  0  0  0  0  0
  -27.3512   24.0908   -9.9789 C   0  0  0  0  0  0
  -26.6526   22.9376   -8.7524 C   0  0  0  0  0  0
  -25.2712   21.8215   -9.2551 C   0  0  0  0  0  0
  -21.3901   20.9978  -13.8400 C   0  0  0  0  0  0
  -20.3741   23.2804  -12.6955 Br  0  0  0  0  0  0
  -20.5223   19.7522  -14.3445 C   0  0  0  0  0  0
  -20.6484   18.2787  -14.0004 C   0  0  0  0  0  0
  -19.6467   17.1974  -14.2898 C   0  0  0  0  0  0
  -18.4781   17.2275  -14.8556 N   0  0  0  0  0  0
  -17.9457   18.4229  -15.1625 N   0  0  0  0  0  0
  -16.8962   18.6159  -15.9984 C   0  0  0  0  0  0
  -16.3287   17.6170  -16.6407 N   0  0  0  0  0  0
  -15.2478   18.0680  -17.3692 C   0  0  0  0  0  0
  -15.0038   19.4201  -17.2984 C   0  0  0  0  0  0
  -16.1523   20.1544  -16.2644 S   0  0  0  0  0  0
  -21.7361   17.7180  -13.3494 C   0  0  0  0  0  0
  -18.2540   19.2436  -14.6488 H   0  0  0  0  0  0
  1  2  1  0  0  0
  2  3  1  0  0  0
  3  4  2  0  0  0
  3 25  1  0  0  0
  4  5  1  0  0  0
  4 13  1  0  0  0
  5  6  1  0  0  0
  6  7  1  0  0  0
  7  8  2  0  0  0
  7 12  1  0  0  0
  8  9  1  0  0  0
  9 10  2  0  0  0
 10 11  1  0  0  0
 11 12  2  0  0  0
 13 14  1  0  0  0
 13 15  2  0  0  0
 15 16  1  0  0  0
 16 17  1  0  0  0
 16 25  2  0  0  0
 17 18  2  0  0  0
 18 19  1  0  0  0
 19 20  1  0  0  0
 19 26  1  0  0  0
 20 21  2  0  0  0
 20 24  1  0  0  0
 21 22  1  0  0  0
 22 23  2  0  0  0
 23 24  1  0  0  0
M  END
>  <CHROM.0>
-174.45946656,67.56034334,111.12954428,-59.96426814,-29.60348016,-58.85697054
-37.00949352,-161.38422020

>  <CHROM.1>
-87.56399985,144.61113657,171.67348639,-96.29731700,0.96820239,-164.92244615
2.86430644,-21.07797614,20.53788170,-13.33184176,2.71656706,0.49984209,0.15862787

>  <Name>
F3285-1602

>  <RI>
2.18832e+07

>  <Rbt.Current_Directory>
/home/adria/Escritorio/rDock_CMTR_LC/2pxcA_model/inputs_sah

>  <Rbt.Executable>
rbdock ($Id: //depot/dev/client3/rdock/2013.1/src/exe/rbdock.cxx#4 $)

>  <Rbt.Library>
libRbt.so (2013.1, Build901 2013/11/27)

>  <Rbt.Parameter_File>
/home/adria/Escritorio/rDock_2013.1_src/data/scripts/dock.prm

>  <Rbt.Receptor>
sah_rdock.prm

>  <SCORE>
-279.869

>  <SCORE.INTER>
-6.05375

>  <SCORE.INTER.CONST>
1

>  <SCORE.INTER.POLAR>
0

>  <SCORE.INTER.REPUL>
0

>  <SCORE.INTER.ROT>
7

>  <SCORE.INTER.VDW>
-18.4537

>  <SCORE.INTER.norm>
-0.24215

>  <SCORE.INTRA>
-267.491

>  <SCORE.INTRA.DIHEDRAL>
-8.82299

>  <SCORE.INTRA.DIHEDRAL.0>
16.6465

>  <SCORE.INTRA.POLAR>
0

>  <SCORE.INTRA.POLAR.0>
0

>  <SCORE.INTRA.REPUL>
-0.00203294

>  <SCORE.INTRA.REPUL.0>
0.00203294

>  <SCORE.INTRA.VDW>
-263.07

>  <SCORE.INTRA.VDW.0>
261.865

>  <SCORE.INTRA.norm>
-10.6997

>  <SCORE.RESTR>
0

>  <SCORE.RESTR.CAVITY>
0

>  <SCORE.RESTR.norm>
0

>  <SCORE.SYSTEM>
-6.32429

>  <SCORE.SYSTEM.CONST>
0

>  <SCORE.SYSTEM.DIHEDRAL>
9.1595

>  <SCORE.SYSTEM.POLAR>
-4.28999

>  <SCORE.SYSTEM.VDW>
3.68193

>  <SCORE.SYSTEM.norm>
-0.252972

>  <SCORE.heavy>
25

>  <SCORE.norm>
-11.1948

$$$$
F3285-1602
  rDOCK(R)          3D
libRbt.so/2013.1/901 2013/11/27
 26 28  0  0  0  0  0  0  0  0999 V2000
  -22.5169   23.9601  -12.1689 C   0  0  0  0  0  0
  -21.4033   23.2752  -11.5368 O   0  0  0  0  0  0
  -20.8773   22.1679  -12.2231 C   0  0  0  0  0  0
  -21.2529   20.7405  -11.8331 C   0  0  0  0  0  0
  -22.3517   20.9935  -10.9559 O   0  0  0  0  0  0
  -22.9378   19.8674  -10.4031 C   0  0  0  0  0  0
  -23.8911   20.4918   -9.5036 C   0  0  0  0  0  0
  -25.4981   20.1813  -10.2670 C   0  0  0  0  0  0
  -26.8541   21.1996   -9.9383 C   0  0  0  0  0  0
  -26.6959   22.5975   -8.8920 C   0  0  0  0  0  0
  -25.1257   23.0112   -8.0641 C   0  0  0  0  0  0
  -23.6346   21.9764   -8.3997 C   0  0  0  0  0  0
  -20.7899   19.2587  -12.5122 C   0  0  0  0  0  0
  -22.4833   17.1517  -13.0077 Br  0  0  0  0  0  0
  -19.7690   19.8917  -13.5687 C   0  0  0  0  0  0
  -19.6035   21.3337  -14.0143 C   0  0  0  0  0  0
  -18.8188   21.8266  -15.1965 C   0  0  0  0  0  0
  -17.9297   21.2506  -15.9476 N   0  0  0  0  0  0
  -17.6975   19.9382  -15.7736 N   0  0  0  0  0  0
  -16.5576   19.2958  -16.1280 C   0  0  0  0  0  0
  -16.4318   17.9910  -16.0096 N   0  0  0  0  0  0
  -15.1608   17.5972  -16.3727 C   0  0  0  0  0  0
  -14.3214   18.6041  -16.7902 C   0  0  0  0  0  0
  -15.1409   20.1034  -16.7039 S   0  0  0  0  0  0
  -20.1757   22.4210  -13.3726 C   0  0  0  0  0  0
  -18.4616   19.3408  -15.4708 H   0  0  0  0  0  0
  1  2  1  0  0  0
  2  3  1  0  0  0
  3  4  2  0  0  0
  3 25  1  0  0  0
  4  5  1  0  0  0
  4 13  1  0  0  0
  5  6  1  0  0  0
  6  7  1  0  0  0
  7  8  2  0  0  0
  7 12  1  0  0  0
  8  9  1  0  0  0
  9 10  2  0  0  0
 10 11  1  0  0  0
 11 12  2  0  0  0
 13 14  1  0  0  0
 13 15  2  0  0  0
 15 16  1  0  0  0
 16 17  1  0  0  0
 16 25  2  0  0  0
 17 18  2  0  0  0
 18 19  1  0  0  0
 19 20  1  0  0  0
 19 26  1  0  0  0
 20 21  2  0  0  0
 20 24  1  0  0  0
 21 22  1  0  0  0
 22 23  2  0  0  0
 23 24  1  0  0  0
M  END
>  <CHROM.0>
-59.09003841,-171.06676767,-165.18667305,62.83208107,167.79068162,-59.99957901
-38.19251028,-161.39190658

>  <CHROM.1>
-99.90365762,-179.65686753,174.84825689,108.60122334,-14.53332469,-157.19089968
-175.39042781,-20.74992364,20.12003840,-12.99685475,-2.81616880,-0.58598807
-2.88299691

>  <Name>
F3285-1602

>  <RI>
2.18832e+07

>  <Rbt.Current_Directory>
/home/adria/Escritorio/rDock_CMTR_LC/2pxcA_model/inputs_sah

>  <Rbt.Executable>
rbdock ($Id: //depot/dev/client3/rdock/2013.1/src/exe/rbdock.cxx#4 $)

>  <Rbt.Library>
libRbt.so (2013.1, Build901 2013/11/27)

>  <Rbt.Parameter_File>
/home/adria/Escritorio/rDock_2013.1_src/data/scripts/dock.prm

>  <Rbt.Receptor>
sah_rdock.prm

>  <SCORE>
-279.639

>  <SCORE.INTER>
-10.8756

>  <SCORE.INTER.CONST>
1

>  <SCORE.INTER.POLAR>
0

>  <SCORE.INTER.REPUL>
0

>  <SCORE.INTER.ROT>
7

>  <SCORE.INTER.VDW>
-23.2756

>  <SCORE.INTER.norm>
-0.435024

>  <SCORE.INTRA>
-267.497

>  <SCORE.INTRA.DIHEDRAL>
-8.48923

>  <SCORE.INTRA.DIHEDRAL.0>
16.6465

>  <SCORE.INTRA.POLAR>
0

>  <SCORE.INTRA.POLAR.0>
0

>  <SCORE.INTRA.REPUL>
-0.00203294

>  <SCORE.INTRA.REPUL.0>
0.00203294

>  <SCORE.INTRA.VDW>
-263.242

>  <SCORE.INTRA.VDW.0>
261.865

>  <SCORE.INTRA.norm>
-10.6999

>  <SCORE.RESTR>
0

>  <SCORE.RESTR.CAVITY>
0

>  <SCORE.RESTR.norm>
0

>  <SCORE.SYSTEM>
-1.26656

>  <SCORE.SYSTEM.CONST>
0

>  <SCORE.SYSTEM.DIHEDRAL>
3.19633

>  <SCORE.SYSTEM.POLAR>
-3.54899

>  <SCORE.SYSTEM.VDW>
9.20185

>  <SCORE.SYSTEM.norm>
-0.0506625

>  <SCORE.heavy>
25

>  <SCORE.norm>
-11.1856

$$$$
F3285-1602
  rDOCK(R)          3D
libRbt.so/2013.1/901 2013/11/27
 26 28  0  0  0  0  0  0  0  0999 V2000
  -20.4915   23.8404  -11.9339 C   0  0  0  0  0  0
  -20.7290   23.3774  -13.2897 O   0  0  0  0  0  0
  -20.1588   22.1417  -13.6389 C   0  0  0  0  0  0
  -20.6077   20.8435  -12.9726 C   0  0  0  0  0  0
  -21.7879   21.2917  -12.3039 O   0  0  0  0  0  0
  -22.6927   20.2974  -11.9724 C   0  0  0  0  0  0
  -23.7617   21.1028  -11.4101 C   0  0  0  0  0  0
  -24.8677   21.4158  -12.8031 C   0  0  0  0  0  0
  -25.9246   22.7820  -12.8143 C   0  0  0  0  0  0
  -25.9172   23.9352  -11.4936 C   0  0  0  0  0  0
  -24.8463   23.7244  -10.0338 C   0  0  0  0  0  0
  -23.6747   22.2993   -9.9786 C   0  0  0  0  0  0
  -20.1096   19.2453  -13.2350 C   0  0  0  0  0  0
  -21.7895   17.0775  -13.4119 Br  0  0  0  0  0  0
  -18.9667   19.6170  -14.2907 C   0  0  0  0  0  0
  -18.7203   20.9160  -15.0372 C   0  0  0  0  0  0
  -17.8020   21.1218  -16.2079 C   0  0  0  0  0  0
  -17.0383   20.3021  -16.8648 N   0  0  0  0  0  0
  -17.1138   18.9903  -16.5820 N   0  0  0  0  0  0
  -16.1006   18.1023  -16.7312 C   0  0  0  0  0  0
  -16.2601   16.8200  -16.4811 N   0  0  0  0  0  0
  -15.0670   16.1476  -16.6448 C   0  0  0  0  0  0
  -13.9986   16.9179  -17.0422 C   0  0  0  0  0  0
  -14.4951   18.5480  -17.1948 S   0  0  0  0  0  0
  -19.3322   22.1217  -14.7315 C   0  0  0  0  0  0
  -18.0195   18.5885  -16.3567 H   0  0  0  0  0  0
  1  2  1  0  0  0
  2  3  1  0  0  0
  3  4  2  0  0  0
  3 25  1  0  0  0
  4  5  1  0  0  0
  4 13  1  0  0  0
  5  6  1  0  0  0
  6  7  1  0  0  0
  7  8  2  0  0  0
  7 12  1  0  0  0
  8  9  1  0  0  0
  9 10  2  0  0  0
 10 11  1  0  0  0
 11 12  2  0  0  0
 13 14  1  0  0  0
 13 15  2  0  0  0
 15 16  1  0  0  0
 16 17  1  0  0  0
 16 25  2  0  0  0
 17 18  2  0  0  0
 18 19  1  0  0  0
 19 20  1  0  0  0
 19 26  1  0  0  0
 20 21  2  0  0  0
 20 24  1  0  0  0
 21 22  1  0  0  0
 22 23  2  0  0  0
 23 24  1  0  0  0
M  END
>  <CHROM.0>
-61.65058633,-167.42797945,-128.68158784,-61.96401092,-31.32762008,-59.18486008
-37.53492758,-162.96176589

>  <CHROM.1>
65.23419826,158.96144976,-176.54512753,92.85044798,1.03235665,-151.92422945
-177.42063645,-20.10637209,19.90482873,-14.01814554,-2.69176062,-0.50817829
-3.04528876

>  <Name>
F3285-1602

>  <RI>
2.18832e+07

>  <Rbt.Current_Directory>
/home/adria/Escritorio/rDock_CMTR_LC/2pxcA_model/inputs_sah

>  <Rbt.Executable>
rbdock ($Id: //depot/dev/client3/rdock/2013.1/src/exe/rbdock.cxx#4 $)

>  <Rbt.Library>
libRbt.so (2013.1, Build901 2013/11/27)

>  <Rbt.Parameter_File>
/home/adria/Escritorio/rDock_2013.1_src/data/scripts/dock.prm

>  <Rbt.Receptor>
sah_rdock.prm

>  <SCORE>
-285.621

>  <SCORE.INTER>
-11.4655

>  <SCORE.INTER.CONST>
1

>  <SCORE.INTER.POLAR>
-0.759344

>  <SCORE.INTER.REPUL>
0

>  <SCORE.INTER.ROT>
7

>  <SCORE.INTER.VDW>
-21.2837

>  <SCORE.INTER.norm>
-0.458618

>  <SCORE.INTRA>
-268.373

>  <SCORE.INTRA.DIHEDRAL>
-9.15298

>  <SCORE.INTRA.DIHEDRAL.0>
16.6465

>  <SCORE.INTRA.POLAR>
0

>  <SCORE.INTRA.POLAR.0>
0

>  <SCORE.INTRA.REPUL>
-0.00203294

>  <SCORE.INTRA.REPUL.0>
0.00203294

>  <SCORE.INTRA.VDW>
-263.786

>  <SCORE.INTRA.VDW.0>
261.865

>  <SCORE.INTRA.norm>
-10.7349

>  <SCORE.RESTR>
0

>  <SCORE.RESTR.CAVITY>
0

>  <SCORE.RESTR.norm>
0

>  <SCORE.SYSTEM>
-5.78279

>  <SCORE.SYSTEM.CONST>
0

>  <SCORE.SYSTEM.DIHEDRAL>
9.0738

>  <SCORE.SYSTEM.POLAR>
-4.20569

>  <SCORE.SYSTEM.VDW>
3.97965

>  <SCORE.SYSTEM.norm>
-0.231312

>  <SCORE.heavy>
25

>  <SCORE.norm>
-11.4248

$$$$
