F2972-0190
  rDOCK(R)          3D
libRbt.so/2013.1/901 2013/11/27
 31 34  0  0  0  0  0  0  0  0999 V2000
  -24.0909   22.6570   -8.2968 C   0  0  0  0  0  0
  -24.4750   22.7819   -9.7239 C   0  0  0  0  0  0
  -24.8713   23.8114  -10.2553 O   0  0  0  0  0  0
  -24.2721   21.5728  -10.4984 C   0  0  0  0  0  0
  -24.0762   20.3342   -9.8872 C   0  0  0  0  0  0
  -23.3644   19.3876  -10.5769 C   0  0  0  0  0  0
  -22.5915   19.8337  -11.7364 C   0  0  0  0  0  0
  -23.6663   20.5822  -12.4552 C   0  0  0  0  0  0
  -24.1197   21.7097  -11.8448 C   0  0  0  0  0  0
  -20.5703   19.2446  -12.3956 C   0  0  0  0  0  0
  -19.8688   18.1754  -12.2126 O   0  0  0  0  0  0
  -19.6961   19.9880  -13.6576 N   0  0  0  0  0  0
  -19.5307   21.4553  -14.0737 C   0  0  0  0  0  0
  -20.4982   22.5261  -13.5598 C   0  0  0  0  0  0
  -20.4174   22.4094  -12.0926 C   0  0  0  0  0  0
  -20.7207   23.7988  -11.7458 N   0  0  0  0  0  0
  -19.7921   24.6539  -10.4441 C   0  0  0  0  0  0
  -20.2863   26.3166  -10.4458 C   0  0  0  0  0  0
  -21.6217   26.5237  -11.8597 N   0  0  0  0  0  0
  -21.8671   25.0102  -12.6715 C   0  0  0  0  0  0
  -18.8846   19.0898  -14.3691 C   0  0  0  0  0  0
  -17.8703   19.4322  -15.1122 N   0  0  0  0  0  0
  -17.5081   18.3768  -15.9260 C   0  0  0  0  0  0
  -18.3525   17.2647  -15.8985 C   0  0  0  0  0  0
  -19.5163   17.5097  -14.6422 S   0  0  0  0  0  0
  -18.1854   16.1882  -16.7927 C   0  0  0  0  0  0
  -17.1025   16.2258  -17.6884 C   0  0  0  0  0  0
  -16.8824   15.1052  -18.6657 C   0  0  0  0  0  0
  -16.2273   17.3173  -17.6811 C   0  0  0  0  0  0
  -16.3978   18.3924  -16.7930 C   0  0  0  0  0  0
  -15.4059   19.5176  -16.7722 C   0  0  0  0  0  0
  1  2  1  0  0  0
  2  3  2  0  0  0
  2  4  1  0  0  0
  4  5  2  0  0  0
  4  9  1  0  0  0
  5  6  1  0  0  0
  6  7  2  0  0  0
  7  8  1  0  0  0
  7 10  1  0  0  0
  8  9  2  0  0  0
 10 11  2  0  0  0
 10 12  1  0  0  0
 12 13  1  0  0  0
 12 21  1  0  0  0
 13 14  1  0  0  0
 14 15  1  0  0  0
 15 16  1  0  0  0
 16 17  1  0  0  0
 16 20  1  0  0  0
 17 18  2  0  0  0
 18 19  1  0  0  0
 19 20  2  0  0  0
 21 22  2  0  0  0
 21 25  1  0  0  0
 22 23  1  0  0  0
 23 24  2  0  0  0
 23 30  1  0  0  0
 24 25  1  0  0  0
 24 26  1  0  0  0
 26 27  2  0  0  0
 27 28  1  0  0  0
 27 29  1  0  0  0
 29 30  2  0  0  0
 30 31  1  0  0  0
M  END
>  <CHROM.0>
-62.18306876,-76.42718557,-47.69138262,69.46486460,167.89657285,178.31179679
82.22794722,-156.30759332

>  <CHROM.1>
15.90007245,25.78119905,-16.62087399,-160.36443626,56.20782589,150.84132502
-137.74794168,-20.37813293,20.46281331,-13.28785961,2.32115305,0.63234341
0.28799962

>  <Name>
F2972-0190

>  <RI>
2.5332e+07

>  <Rbt.Current_Directory>
/home/adria/Escritorio/rDock_CMTR_LC/2pxcA_model/inputs_sah

>  <Rbt.Executable>
rbdock ($Id: //depot/dev/client3/rdock/2013.1/src/exe/rbdock.cxx#4 $)

>  <Rbt.Library>
libRbt.so (2013.1, Build901 2013/11/27)

>  <Rbt.Parameter_File>
/home/adria/Escritorio/rDock_2013.1_src/data/scripts/dock.prm

>  <Rbt.Receptor>
sah_rdock.prm

>  <SCORE>
-258.247

>  <SCORE.INTER>
-22.4526

>  <SCORE.INTER.CONST>
1

>  <SCORE.INTER.POLAR>
-2.4186

>  <SCORE.INTER.REPUL>
0.0026316

>  <SCORE.INTER.ROT>
7

>  <SCORE.INTER.VDW>
-26.6425

>  <SCORE.INTER.norm>
-0.724277

>  <SCORE.INTRA>
-233.371

>  <SCORE.INTRA.DIHEDRAL>
-33.7399

>  <SCORE.INTRA.DIHEDRAL.0>
53.783

>  <SCORE.INTRA.POLAR>
0

>  <SCORE.INTRA.POLAR.0>
0

>  <SCORE.INTRA.REPUL>
0

>  <SCORE.INTRA.REPUL.0>
0

>  <SCORE.INTRA.VDW>
-216.501

>  <SCORE.INTRA.VDW.0>
220.06

>  <SCORE.INTRA.norm>
-7.52809

>  <SCORE.RESTR>
0

>  <SCORE.RESTR.CAVITY>
0

>  <SCORE.RESTR.norm>
0

>  <SCORE.SYSTEM>
-2.42419

>  <SCORE.SYSTEM.CONST>
0

>  <SCORE.SYSTEM.DIHEDRAL>
4.63821

>  <SCORE.SYSTEM.POLAR>
-3.93956

>  <SCORE.SYSTEM.REPUL>
0.0440729

>  <SCORE.SYSTEM.VDW>
8.43083

>  <SCORE.SYSTEM.norm>
-0.0781997

>  <SCORE.heavy>
31

>  <SCORE.norm>
-8.33056

$$$$
F2972-0190
  rDOCK(R)          3D
libRbt.so/2013.1/901 2013/11/27
 31 34  0  0  0  0  0  0  0  0999 V2000
  -23.2155   21.5861  -10.1783 C   0  0  0  0  0  0
  -22.7549   20.1823  -10.0471 C   0  0  0  0  0  0
  -22.2780   19.6935   -9.0308 O   0  0  0  0  0  0
  -22.9838   19.3726  -11.2282 C   0  0  0  0  0  0
  -22.5084   18.0647  -11.3246 C   0  0  0  0  0  0
  -22.2556   17.5681  -12.5768 C   0  0  0  0  0  0
  -22.1843   18.5241  -13.6823 C   0  0  0  0  0  0
  -23.4718   19.2443  -13.4470 C   0  0  0  0  0  0
  -23.5426   19.9852  -12.3087 C   0  0  0  0  0  0
  -20.7899   18.6042  -15.3899 C   0  0  0  0  0  0
  -20.6078   19.4723  -16.3290 O   0  0  0  0  0  0
  -19.3727   17.6672  -15.5420 N   0  0  0  0  0  0
  -19.0631   16.2022  -15.2081 C   0  0  0  0  0  0
  -18.7499   15.1975  -16.3212 C   0  0  0  0  0  0
  -18.1603   14.0474  -15.6122 C   0  0  0  0  0  0
  -17.2858   13.5578  -16.6791 N   0  0  0  0  0  0
  -15.6730   14.3285  -16.9834 C   0  0  0  0  0  0
  -14.8465   13.3753  -18.1739 C   0  0  0  0  0  0
  -16.0263   11.8895  -18.6489 N   0  0  0  0  0  0
  -17.4924   11.9762  -17.7251 C   0  0  0  0  0  0
  -18.3365   18.3399  -16.2094 C   0  0  0  0  0  0
  -17.3454   17.7572  -16.8228 N   0  0  0  0  0  0
  -16.3432   18.6746  -17.0706 C   0  0  0  0  0  0
  -16.5200   19.9410  -16.5091 C   0  0  0  0  0  0
  -18.1082   20.0048  -15.8265 S   0  0  0  0  0  0
  -15.5041   20.9170  -16.5535 C   0  0  0  0  0  0
  -14.3126   20.6104  -17.2338 C   0  0  0  0  0  0
  -13.1964   21.6145  -17.3065 C   0  0  0  0  0  0
  -14.1560   19.3591  -17.8394 C   0  0  0  0  0  0
  -15.1671   18.3849  -17.7901 C   0  0  0  0  0  0
  -14.9886   17.0763  -18.5016 C   0  0  0  0  0  0
  1  2  1  0  0  0
  2  3  2  0  0  0
  2  4  1  0  0  0
  4  5  2  0  0  0
  4  9  1  0  0  0
  5  6  1  0  0  0
  6  7  2  0  0  0
  7  8  1  0  0  0
  7 10  1  0  0  0
  8  9  2  0  0  0
 10 11  2  0  0  0
 10 12  1  0  0  0
 12 13  1  0  0  0
 12 21  1  0  0  0
 13 14  1  0  0  0
 14 15  1  0  0  0
 15 16  1  0  0  0
 16 17  1  0  0  0
 16 20  1  0  0  0
 17 18  2  0  0  0
 18 19  1  0  0  0
 19 20  2  0  0  0
 21 22  2  0  0  0
 21 25  1  0  0  0
 22 23  1  0  0  0
 23 24  2  0  0  0
 23 30  1  0  0  0
 24 25  1  0  0  0
 24 26  1  0  0  0
 26 27  2  0  0  0
 27 28  1  0  0  0
 27 29  1  0  0  0
 29 30  2  0  0  0
 30 31  1  0  0  0
M  END
>  <CHROM.0>
-60.16704573,-75.44135372,72.59521235,-144.97613496,-28.79597030,-57.22491141
-38.52195215,-50.21968888

>  <CHROM.1>
174.25424629,-173.50699202,113.33723066,-157.06979094,165.01328210,-150.51401272
81.00342678,-18.60209382,17.92528669,-15.30507821,-2.65370646,-0.63636318
-2.91648259

>  <Name>
F2972-0190

>  <RI>
2.5332e+07

>  <Rbt.Current_Directory>
/home/adria/Escritorio/rDock_CMTR_LC/2pxcA_model/inputs_sah

>  <Rbt.Executable>
rbdock ($Id: //depot/dev/client3/rdock/2013.1/src/exe/rbdock.cxx#4 $)

>  <Rbt.Library>
libRbt.so (2013.1, Build901 2013/11/27)

>  <Rbt.Parameter_File>
/home/adria/Escritorio/rDock_2013.1_src/data/scripts/dock.prm

>  <Rbt.Receptor>
sah_rdock.prm

>  <SCORE>
-245.375

>  <SCORE.INTER>
-11.848

>  <SCORE.INTER.CONST>
1

>  <SCORE.INTER.POLAR>
-1.02369

>  <SCORE.INTER.REPUL>
0

>  <SCORE.INTER.ROT>
7

>  <SCORE.INTER.VDW>
-20.7674

>  <SCORE.INTER.norm>
-0.382193

>  <SCORE.INTRA>
-231.389

>  <SCORE.INTRA.DIHEDRAL>
-33.4661

>  <SCORE.INTRA.DIHEDRAL.0>
53.783

>  <SCORE.INTRA.POLAR>
0

>  <SCORE.INTRA.POLAR.0>
0

>  <SCORE.INTRA.REPUL>
0

>  <SCORE.INTRA.REPUL.0>
0

>  <SCORE.INTRA.VDW>
-214.656

>  <SCORE.INTRA.VDW.0>
220.06

>  <SCORE.INTRA.norm>
-7.46417

>  <SCORE.RESTR>
0

>  <SCORE.RESTR.CAVITY>
0

>  <SCORE.RESTR.norm>
0

>  <SCORE.SYSTEM>
-2.13776

>  <SCORE.SYSTEM.CONST>
0

>  <SCORE.SYSTEM.DIHEDRAL>
13.7294

>  <SCORE.SYSTEM.POLAR>
-3.74474

>  <SCORE.SYSTEM.REPUL>
0.0538005

>  <SCORE.SYSTEM.VDW>
3.46065

>  <SCORE.SYSTEM.norm>
-0.06896

>  <SCORE.heavy>
31

>  <SCORE.norm>
-7.91532

$$$$
F2972-0190
  rDOCK(R)          3D
libRbt.so/2013.1/901 2013/11/27
 31 34  0  0  0  0  0  0  0  0999 V2000
  -19.1533   25.0071  -10.4722 C   0  0  0  0  0  0
  -20.5263   24.6113  -10.0748 C   0  0  0  0  0  0
  -21.0428   24.8630   -8.9935 O   0  0  0  0  0  0
  -21.2747   23.9426  -11.1216 C   0  0  0  0  0  0
  -21.9661   22.7543  -10.8847 C   0  0  0  0  0  0
  -22.1635   21.9085  -11.9450 C   0  0  0  0  0  0
  -21.3704   22.1405  -13.1525 C   0  0  0  0  0  0
  -21.6540   23.5955  -13.3381 C   0  0  0  0  0  0
  -21.1507   24.4282  -12.3880 C   0  0  0  0  0  0
  -20.3840   20.6915  -14.4920 C   0  0  0  0  0  0
  -19.5625   20.8330  -15.4788 O   0  0  0  0  0  0
  -20.2274   19.0213  -14.1831 N   0  0  0  0  0  0
  -21.1894   17.9880  -13.5828 C   0  0  0  0  0  0
  -22.2976   18.4215  -12.6182 C   0  0  0  0  0  0
  -21.5775   18.7943  -11.3871 C   0  0  0  0  0  0
  -22.7268   18.9095  -10.4880 N   0  0  0  0  0  0
  -22.7443   20.1422   -9.1583 C   0  0  0  0  0  0
  -24.3208   20.1189   -8.4350 C   0  0  0  0  0  0
  -25.3758   18.7745   -9.3861 N   0  0  0  0  0  0
  -24.4269   18.0600  -10.6507 C   0  0  0  0  0  0
  -19.0346   18.4775  -14.6862 C   0  0  0  0  0  0
  -18.0654   19.1707  -15.2137 N   0  0  0  0  0  0
  -17.2123   18.3330  -15.9048 C   0  0  0  0  0  0
  -17.6210   17.0026  -16.0201 C   0  0  0  0  0  0
  -19.0293   16.7903  -15.0383 S   0  0  0  0  0  0
  -16.9237   16.0833  -16.8295 C   0  0  0  0  0  0
  -15.7580   16.5191  -17.4835 C   0  0  0  0  0  0
  -14.9803   15.5795  -18.3620 C   0  0  0  0  0  0
  -15.3212   17.8389  -17.3273 C   0  0  0  0  0  0
  -16.0198   18.7561  -16.5244 C   0  0  0  0  0  0
  -15.4897   20.1462  -16.3319 C   0  0  0  0  0  0
  1  2  1  0  0  0
  2  3  2  0  0  0
  2  4  1  0  0  0
  4  5  2  0  0  0
  4  9  1  0  0  0
  5  6  1  0  0  0
  6  7  2  0  0  0
  7  8  1  0  0  0
  7 10  1  0  0  0
  8  9  2  0  0  0
 10 11  2  0  0  0
 10 12  1  0  0  0
 12 13  1  0  0  0
 12 21  1  0  0  0
 13 14  1  0  0  0
 14 15  1  0  0  0
 15 16  1  0  0  0
 16 17  1  0  0  0
 16 20  1  0  0  0
 17 18  2  0  0  0
 18 19  1  0  0  0
 19 20  2  0  0  0
 21 22  2  0  0  0
 21 25  1  0  0  0
 22 23  1  0  0  0
 23 24  2  0  0  0
 23 30  1  0  0  0
 24 25  1  0  0  0
 24 26  1  0  0  0
 26 27  2  0  0  0
 27 28  1  0  0  0
 27 29  1  0  0  0
 29 30  2  0  0  0
 30 31  1  0  0  0
M  END
>  <CHROM.0>
179.89412368,-72.73952612,-9.09082108,-60.19806654,168.47226987,-178.95138468
77.39733452,-164.05233585

>  <CHROM.1>
131.75961223,-171.45091321,-25.98159681,6.84476446,-70.81855709,-168.80959052
-145.85810366,-19.98241390,19.87072649,-13.33882540,-2.41655794,-0.67572190
-2.81963556

>  <Name>
F2972-0190

>  <RI>
2.5332e+07

>  <Rbt.Current_Directory>
/home/adria/Escritorio/rDock_CMTR_LC/2pxcA_model/inputs_sah

>  <Rbt.Executable>
rbdock ($Id: //depot/dev/client3/rdock/2013.1/src/exe/rbdock.cxx#4 $)

>  <Rbt.Library>
libRbt.so (2013.1, Build901 2013/11/27)

>  <Rbt.Parameter_File>
/home/adria/Escritorio/rDock_2013.1_src/data/scripts/dock.prm

>  <Rbt.Receptor>
sah_rdock.prm

>  <SCORE>
-251.149

>  <SCORE.INTER>
-15.1338

>  <SCORE.INTER.CONST>
1

>  <SCORE.INTER.POLAR>
0

>  <SCORE.INTER.REPUL>
0

>  <SCORE.INTER.ROT>
7

>  <SCORE.INTER.VDW>
-27.5338

>  <SCORE.INTER.norm>
-0.488185

>  <SCORE.INTRA>
-234.376

>  <SCORE.INTRA.DIHEDRAL>
-38.9268

>  <SCORE.INTRA.DIHEDRAL.0>
53.783

>  <SCORE.INTRA.POLAR>
0

>  <SCORE.INTRA.POLAR.0>
0

>  <SCORE.INTRA.REPUL>
0

>  <SCORE.INTRA.REPUL.0>
0

>  <SCORE.INTRA.VDW>
-214.912

>  <SCORE.INTRA.VDW.0>
220.06

>  <SCORE.INTRA.norm>
-7.56051

>  <SCORE.RESTR>
0

>  <SCORE.RESTR.CAVITY>
0

>  <SCORE.RESTR.norm>
0

>  <SCORE.SYSTEM>
-1.63947

>  <SCORE.SYSTEM.CONST>
0

>  <SCORE.SYSTEM.DIHEDRAL>
5.86983

>  <SCORE.SYSTEM.POLAR>
-4.29749

>  <SCORE.SYSTEM.REPUL>
0.0380671

>  <SCORE.SYSTEM.VDW>
9.84673

>  <SCORE.SYSTEM.norm>
-0.0528861

>  <SCORE.heavy>
31

>  <SCORE.norm>
-8.10158

$$$$
F2972-0190
  rDOCK(R)          3D
libRbt.so/2013.1/901 2013/11/27
 31 34  0  0  0  0  0  0  0  0999 V2000
  -22.3831   27.2011   -8.6077 C   0  0  0  0  0  0
  -21.8221   25.8427   -8.8077 C   0  0  0  0  0  0
  -21.9485   24.9101   -8.0244 O   0  0  0  0  0  0
  -21.1484   25.6631  -10.0793 C   0  0  0  0  0  0
  -21.7913   25.9124  -11.2920 C   0  0  0  0  0  0
  -21.3542   25.2311  -12.3980 C   0  0  0  0  0  0
  -20.4875   24.0725  -12.1804 C   0  0  0  0  0  0
  -19.4729   24.7086  -11.2872 C   0  0  0  0  0  0
  -19.9136   25.0888  -10.0581 C   0  0  0  0  0  0
  -20.4811   22.1078  -13.1837 C   0  0  0  0  0  0
  -20.0254   21.7116  -14.3256 O   0  0  0  0  0  0
  -20.7455   20.6114  -12.4088 N   0  0  0  0  0  0
  -21.7232   20.1769  -11.3093 C   0  0  0  0  0  0
  -22.7426   21.1662  -10.7360 C   0  0  0  0  0  0
  -23.5493   21.5679  -11.9025 C   0  0  0  0  0  0
  -24.3401   22.6238  -11.2682 N   0  0  0  0  0  0
  -26.1167   22.7770  -11.5975 C   0  0  0  0  0  0
  -26.7486   23.9968  -10.5384 C   0  0  0  0  0  0
  -25.2578   24.6555   -9.4572 N   0  0  0  0  0  0
  -23.8025   23.8069   -9.8719 C   0  0  0  0  0  0
  -20.0068   19.5599  -12.9746 C   0  0  0  0  0  0
  -19.0584   19.7073  -13.8561 N   0  0  0  0  0  0
  -18.7775   18.4924  -14.4499 C   0  0  0  0  0  0
  -19.6255   17.4354  -14.1123 C   0  0  0  0  0  0
  -20.6731   17.9755  -12.8461 S   0  0  0  0  0  0
  -19.5461   16.1880  -14.7635 C   0  0  0  0  0  0
  -18.5452   16.0032  -15.7333 C   0  0  0  0  0  0
  -18.4207   14.6935  -16.4603 C   0  0  0  0  0  0
  -17.6637   17.0468  -16.0352 C   0  0  0  0  0  0
  -17.7470   18.2916  -15.3893 C   0  0  0  0  0  0
  -16.7477   19.3679  -15.6950 C   0  0  0  0  0  0
  1  2  1  0  0  0
  2  3  2  0  0  0
  2  4  1  0  0  0
  4  5  2  0  0  0
  4  9  1  0  0  0
  5  6  1  0  0  0
  6  7  2  0  0  0
  7  8  1  0  0  0
  7 10  1  0  0  0
  8  9  2  0  0  0
 10 11  2  0  0  0
 10 12  1  0  0  0
 12 13  1  0  0  0
 12 21  1  0  0  0
 13 14  1  0  0  0
 14 15  1  0  0  0
 15 16  1  0  0  0
 16 17  1  0  0  0
 16 20  1  0  0  0
 17 18  2  0  0  0
 18 19  1  0  0  0
 19 20  2  0  0  0
 21 22  2  0  0  0
 21 25  1  0  0  0
 22 23  1  0  0  0
 23 24  2  0  0  0
 23 30  1  0  0  0
 24 25  1  0  0  0
 24 26  1  0  0  0
 26 27  2  0  0  0
 27 28  1  0  0  0
 27 29  1  0  0  0
 29 30  2  0  0  0
 30 31  1  0  0  0
M  END
>  <CHROM.0>
-59.73354415,62.01814764,107.53031452,64.67154580,-30.67743856,-55.10911942
-159.79913940,-163.43866634

>  <CHROM.1>
-55.93537756,78.60145965,2.22874898,10.22590491,59.79200019,-172.69897278
-137.51213669,-21.05834916,21.43174359,-12.31065814,-2.03214292,-0.32321311
-2.71174421

>  <Name>
F2972-0190

>  <RI>
2.5332e+07

>  <Rbt.Current_Directory>
/home/adria/Escritorio/rDock_CMTR_LC/2pxcA_model/inputs_sah

>  <Rbt.Executable>
rbdock ($Id: //depot/dev/client3/rdock/2013.1/src/exe/rbdock.cxx#4 $)

>  <Rbt.Library>
libRbt.so (2013.1, Build901 2013/11/27)

>  <Rbt.Parameter_File>
/home/adria/Escritorio/rDock_2013.1_src/data/scripts/dock.prm

>  <Rbt.Receptor>
sah_rdock.prm

>  <SCORE>
-246.712

>  <SCORE.INTER>
-9.43012

>  <SCORE.INTER.CONST>
1

>  <SCORE.INTER.POLAR>
-0.486289

>  <SCORE.INTER.REPUL>
0.106605

>  <SCORE.INTER.ROT>
7

>  <SCORE.INTER.VDW>
-20.7098

>  <SCORE.INTER.norm>
-0.304197

>  <SCORE.INTRA>
-230.287

>  <SCORE.INTRA.DIHEDRAL>
-25.1269

>  <SCORE.INTRA.DIHEDRAL.0>
53.783

>  <SCORE.INTRA.POLAR>
0

>  <SCORE.INTRA.POLAR.0>
0

>  <SCORE.INTRA.REPUL>
0

>  <SCORE.INTRA.REPUL.0>
0

>  <SCORE.INTRA.VDW>
-217.724

>  <SCORE.INTRA.VDW.0>
220.06

>  <SCORE.INTRA.norm>
-7.42861

>  <SCORE.RESTR>
0

>  <SCORE.RESTR.CAVITY>
0

>  <SCORE.RESTR.norm>
0

>  <SCORE.SYSTEM>
-6.99487

>  <SCORE.SYSTEM.CONST>
0

>  <SCORE.SYSTEM.DIHEDRAL>
8.19514

>  <SCORE.SYSTEM.POLAR>
-4.20559

>  <SCORE.SYSTEM.VDW>
3.20657

>  <SCORE.SYSTEM.norm>
-0.225641

>  <SCORE.heavy>
31

>  <SCORE.norm>
-7.95845

$$$$
F2972-0190
  rDOCK(R)          3D
libRbt.so/2013.1/901 2013/11/27
 31 34  0  0  0  0  0  0  0  0999 V2000
  -19.3394   25.1405   -9.8649 C   0  0  0  0  0  0
  -20.4737   25.7329  -10.6148 C   0  0  0  0  0  0
  -20.6957   26.9327  -10.7171 O   0  0  0  0  0  0
  -21.2951   24.7603  -11.3092 C   0  0  0  0  0  0
  -21.6659   23.5544  -10.7139 C   0  0  0  0  0  0
  -21.9302   22.4909  -11.5370 C   0  0  0  0  0  0
  -21.4963   22.5898  -12.9309 C   0  0  0  0  0  0
  -22.0958   23.9168  -13.2649 C   0  0  0  0  0  0
  -21.5625   24.9915  -12.6245 C   0  0  0  0  0  0
  -20.5773   21.0649  -14.2335 C   0  0  0  0  0  0
  -19.7783   21.1469  -15.2452 O   0  0  0  0  0  0
  -20.4504   19.4054  -13.8602 N   0  0  0  0  0  0
  -21.4197   18.4201  -13.1942 C   0  0  0  0  0  0
  -22.7073   18.9196  -12.5316 C   0  0  0  0  0  0
  -23.5294   19.3977  -13.6579 C   0  0  0  0  0  0
  -24.5864   20.0594  -12.8915 N   0  0  0  0  0  0
  -24.8701   21.8432  -13.0514 C   0  0  0  0  0  0
  -26.3052   22.2336  -12.1586 C   0  0  0  0  0  0
  -26.9781   20.5683  -11.3845 N   0  0  0  0  0  0
  -25.9598   19.2428  -11.8496 C   0  0  0  0  0  0
  -19.2833   18.8137  -14.3696 C   0  0  0  0  0  0
  -18.3386   19.4539  -14.9988 N   0  0  0  0  0  0
  -17.5201   18.5554  -15.6547 C   0  0  0  0  0  0
  -17.9362   17.2223  -15.6368 C   0  0  0  0  0  0
  -19.2975   17.1027  -14.5761 S   0  0  0  0  0  0
  -17.2791   16.2334  -16.3961 C   0  0  0  0  0  0
  -16.1444   16.6051  -17.1383 C   0  0  0  0  0  0
  -15.4103   15.5896  -17.9684 C   0  0  0  0  0  0
  -15.6984   17.9309  -17.1158 C   0  0  0  0  0  0
  -16.3572   18.9172  -16.3627 C   0  0  0  0  0  0
  -15.8161   20.3155  -16.3144 C   0  0  0  0  0  0
  1  2  1  0  0  0
  2  3  2  0  0  0
  2  4  1  0  0  0
  4  5  2  0  0  0
  4  9  1  0  0  0
  5  6  1  0  0  0
  6  7  2  0  0  0
  7  8  1  0  0  0
  7 10  1  0  0  0
  8  9  2  0  0  0
 10 11  2  0  0  0
 10 12  1  0  0  0
 12 13  1  0  0  0
 12 21  1  0  0  0
 13 14  1  0  0  0
 14 15  1  0  0  0
 15 16  1  0  0  0
 16 17  1  0  0  0
 16 20  1  0  0  0
 17 18  2  0  0  0
 18 19  1  0  0  0
 19 20  2  0  0  0
 21 22  2  0  0  0
 21 25  1  0  0  0
 22 23  1  0  0  0
 23 24  2  0  0  0
 23 30  1  0  0  0
 24 25  1  0  0  0
 24 26  1  0  0  0
 26 27  2  0  0  0
 27 28  1  0  0  0
 27 29  1  0  0  0
 29 30  2  0  0  0
 30 31  1  0  0  0
M  END
>  <CHROM.0>
-60.75949464,-70.49183573,-169.60580543,64.47316409,168.30559554,-177.39164553
-36.83906514,-158.82374205

>  <CHROM.1>
42.56797009,-152.28195287,-9.52977536,3.80406724,68.05271548,-170.04710950
117.88030814,-20.49623200,20.49073109,-13.70748952,-2.28782686,-0.30704241
-2.71795272

>  <Name>
F2972-0190

>  <RI>
2.5332e+07

>  <Rbt.Current_Directory>
/home/adria/Escritorio/rDock_CMTR_LC/2pxcA_model/inputs_sah

>  <Rbt.Executable>
rbdock ($Id: //depot/dev/client3/rdock/2013.1/src/exe/rbdock.cxx#4 $)

>  <Rbt.Library>
libRbt.so (2013.1, Build901 2013/11/27)

>  <Rbt.Parameter_File>
/home/adria/Escritorio/rDock_2013.1_src/data/scripts/dock.prm

>  <Rbt.Receptor>
sah_rdock.prm

>  <SCORE>
-253.265

>  <SCORE.INTER>
-15.2144

>  <SCORE.INTER.CONST>
1

>  <SCORE.INTER.POLAR>
-1.20222

>  <SCORE.INTER.REPUL>
0

>  <SCORE.INTER.ROT>
7

>  <SCORE.INTER.VDW>
-23.5269

>  <SCORE.INTER.norm>
-0.490788

>  <SCORE.INTRA>
-235.596

>  <SCORE.INTRA.DIHEDRAL>
-37.9167

>  <SCORE.INTRA.DIHEDRAL.0>
53.783

>  <SCORE.INTRA.POLAR>
0

>  <SCORE.INTRA.POLAR.0>
0

>  <SCORE.INTRA.REPUL>
0

>  <SCORE.INTRA.REPUL.0>
0

>  <SCORE.INTRA.VDW>
-216.637

>  <SCORE.INTRA.VDW.0>
220.06

>  <SCORE.INTRA.norm>
-7.59987

>  <SCORE.RESTR>
0

>  <SCORE.RESTR.CAVITY>
0

>  <SCORE.RESTR.norm>
0

>  <SCORE.SYSTEM>
-2.45432

>  <SCORE.SYSTEM.CONST>
0

>  <SCORE.SYSTEM.DIHEDRAL>
3.35763

>  <SCORE.SYSTEM.POLAR>
-3.80599

>  <SCORE.SYSTEM.REPUL>
0.0337523

>  <SCORE.SYSTEM.VDW>
8.63846

>  <SCORE.SYSTEM.norm>
-0.0791716

>  <SCORE.heavy>
31

>  <SCORE.norm>
-8.16983

$$$$
F2972-0190
  rDOCK(R)          3D
libRbt.so/2013.1/901 2013/11/27
 31 34  0  0  0  0  0  0  0  0999 V2000
  -23.7635   25.7728  -12.7769 C   0  0  0  0  0  0
  -23.8644   24.4014  -12.2209 C   0  0  0  0  0  0
  -24.9132   23.8032  -12.0176 O   0  0  0  0  0  0
  -22.5836   23.7606  -11.9931 C   0  0  0  0  0  0
  -21.3799   24.4005  -12.2894 C   0  0  0  0  0  0
  -20.2962   23.6158  -12.5865 C   0  0  0  0  0  0
  -20.5445   22.2067  -12.8924 C   0  0  0  0  0  0
  -21.3744   21.8553  -11.7009 C   0  0  0  0  0  0
  -22.5960   22.4486  -11.6278 C   0  0  0  0  0  0
  -19.6394   20.9181  -14.4374 C   0  0  0  0  0  0
  -18.7236   21.1287  -15.3238 O   0  0  0  0  0  0
  -19.7261   19.2148  -14.4663 N   0  0  0  0  0  0
  -20.8615   18.2336  -14.1475 C   0  0  0  0  0  0
  -21.8875   18.5551  -13.0564 C   0  0  0  0  0  0
  -21.1409   18.3793  -11.7976 C   0  0  0  0  0  0
  -22.2432   18.5918  -10.8582 N   0  0  0  0  0  0
  -22.1464   19.8863   -9.5921 C   0  0  0  0  0  0
  -23.6889   19.9724   -8.8035 C   0  0  0  0  0  0
  -24.8446   18.6356   -9.6416 N   0  0  0  0  0  0
  -23.9856   17.8171  -10.9073 C   0  0  0  0  0  0
  -18.5738   18.6135  -14.9973 C   0  0  0  0  0  0
  -17.5518   19.2618  -15.4805 N   0  0  0  0  0  0
  -16.7587   18.4043  -16.2175 C   0  0  0  0  0  0
  -17.2649   17.1173  -16.4121 C   0  0  0  0  0  0
  -18.6921   16.9541  -15.4482 S   0  0  0  0  0  0
  -16.6326   16.1973  -17.2724 C   0  0  0  0  0  0
  -15.4330   16.5819  -17.8964 C   0  0  0  0  0  0
  -14.7215   15.6397  -18.8267 C   0  0  0  0  0  0
  -14.8998   17.8539  -17.6615 C   0  0  0  0  0  0
  -15.5337   18.7723  -16.8079 C   0  0  0  0  0  0
  -14.9025   20.1050  -16.5323 C   0  0  0  0  0  0
  1  2  1  0  0  0
  2  3  2  0  0  0
  2  4  1  0  0  0
  4  5  2  0  0  0
  4  9  1  0  0  0
  5  6  1  0  0  0
  6  7  2  0  0  0
  7  8  1  0  0  0
  7 10  1  0  0  0
  8  9  2  0  0  0
 10 11  2  0  0  0
 10 12  1  0  0  0
 12 13  1  0  0  0
 12 21  1  0  0  0
 13 14  1  0  0  0
 14 15  1  0  0  0
 15 16  1  0  0  0
 16 17  1  0  0  0
 16 20  1  0  0  0
 17 18  2  0  0  0
 18 19  1  0  0  0
 19 20  2  0  0  0
 21 22  2  0  0  0
 21 25  1  0  0  0
 22 23  1  0  0  0
 23 24  2  0  0  0
 23 30  1  0  0  0
 24 25  1  0  0  0
 24 26  1  0  0  0
 26 27  2  0  0  0
 27 28  1  0  0  0
 27 29  1  0  0  0
 29 30  2  0  0  0
 30 31  1  0  0  0
M  END
>  <CHROM.0>
38.18480962,-77.75037758,109.20292162,66.96665545,-31.69699149,-54.92027367
-159.98045240,-162.01515420

>  <CHROM.1>
-0.40462931,1.93906859,-33.58449130,-2.88205304,-72.89625863,-175.18540413
-122.92076458,-20.01369868,19.85696794,-13.82975442,-2.73292147,-0.71912145
3.03674768

>  <Name>
F2972-0190

>  <RI>
2.5332e+07

>  <Rbt.Current_Directory>
/home/adria/Escritorio/rDock_CMTR_LC/2pxcA_model/inputs_sah

>  <Rbt.Executable>
rbdock ($Id: //depot/dev/client3/rdock/2013.1/src/exe/rbdock.cxx#4 $)

>  <Rbt.Library>
libRbt.so (2013.1, Build901 2013/11/27)

>  <Rbt.Parameter_File>
/home/adria/Escritorio/rDock_2013.1_src/data/scripts/dock.prm

>  <Rbt.Receptor>
sah_rdock.prm

>  <SCORE>
-255.09

>  <SCORE.INTER>
-15.0859

>  <SCORE.INTER.CONST>
1

>  <SCORE.INTER.POLAR>
0

>  <SCORE.INTER.REPUL>
0

>  <SCORE.INTER.ROT>
7

>  <SCORE.INTER.VDW>
-27.4859

>  <SCORE.INTER.norm>
-0.48664

>  <SCORE.INTRA>
-236.985

>  <SCORE.INTRA.DIHEDRAL>
-47.8438

>  <SCORE.INTRA.DIHEDRAL.0>
53.783

>  <SCORE.INTRA.POLAR>
0

>  <SCORE.INTRA.POLAR.0>
0

>  <SCORE.INTRA.REPUL>
0

>  <SCORE.INTRA.REPUL.0>
0

>  <SCORE.INTRA.VDW>
-213.063

>  <SCORE.INTRA.VDW.0>
220.06

>  <SCORE.INTRA.norm>
-7.64468

>  <SCORE.RESTR>
0

>  <SCORE.RESTR.CAVITY>
0

>  <SCORE.RESTR.norm>
0

>  <SCORE.SYSTEM>
-3.01921

>  <SCORE.SYSTEM.CONST>
0

>  <SCORE.SYSTEM.DIHEDRAL>
11.8103

>  <SCORE.SYSTEM.POLAR>
-4.54586

>  <SCORE.SYSTEM.REPUL>
0.174737

>  <SCORE.SYSTEM.VDW>
5.65785

>  <SCORE.SYSTEM.norm>
-0.097394

>  <SCORE.heavy>
31

>  <SCORE.norm>
-8.22871

$$$$
F2972-0190
  rDOCK(R)          3D
libRbt.so/2013.1/901 2013/11/27
 31 34  0  0  0  0  0  0  0  0999 V2000
  -23.5870   22.8383   -7.7865 C   0  0  0  0  0  0
  -23.5372   22.9842   -9.2617 C   0  0  0  0  0  0
  -23.4578   24.0507   -9.8579 O   0  0  0  0  0  0
  -23.5136   21.7244   -9.9796 C   0  0  0  0  0  0
  -23.1483   20.5313   -9.3559 C   0  0  0  0  0  0
  -22.6156   19.5395  -10.1376 C   0  0  0  0  0  0
  -22.1668   19.9047  -11.4816 C   0  0  0  0  0  0
  -23.4010   20.6009  -11.9550 C   0  0  0  0  0  0
  -23.7067   21.7678  -11.3271 C   0  0  0  0  0  0
  -20.3658   19.2724  -12.5875 C   0  0  0  0  0  0
  -19.7367   18.1466  -12.6620 O   0  0  0  0  0  0
  -19.6865   20.1059  -13.9117 N   0  0  0  0  0  0
  -19.4777   21.5993  -14.1942 C   0  0  0  0  0  0
  -20.4989   22.6347  -13.7130 C   0  0  0  0  0  0
  -20.5119   22.4732  -12.2478 C   0  0  0  0  0  0
  -20.8583   23.8469  -11.8795 N   0  0  0  0  0  0
  -19.9963   24.6893  -10.5249 C   0  0  0  0  0  0
  -20.5269   26.3407  -10.5051 C   0  0  0  0  0  0
  -21.8147   26.5539  -11.9615 N   0  0  0  0  0  0
  -21.9971   25.0558  -12.8175 C   0  0  0  0  0  0
  -19.1050   19.2506  -14.8614 C   0  0  0  0  0  0
  -18.9778   17.9612  -14.7220 N   0  0  0  0  0  0
  -18.0800   17.4755  -15.6522 C   0  0  0  0  0  0
  -17.4102   18.4344  -16.4153 C   0  0  0  0  0  0
  -18.1094   19.9777  -16.0658 S   0  0  0  0  0  0
  -16.3592   18.0830  -17.2862 C   0  0  0  0  0  0
  -16.0294   16.7229  -17.4203 C   0  0  0  0  0  0
  -14.9137   16.2956  -18.3324 C   0  0  0  0  0  0
  -16.7347   15.7580  -16.6932 C   0  0  0  0  0  0
  -17.7786   16.1098  -15.8213 C   0  0  0  0  0  0
  -18.5525   15.0440  -15.1032 C   0  0  0  0  0  0
  1  2  1  0  0  0
  2  3  2  0  0  0
  2  4  1  0  0  0
  4  5  2  0  0  0
  4  9  1  0  0  0
  5  6  1  0  0  0
  6  7  2  0  0  0
  7  8  1  0  0  0
  7 10  1  0  0  0
  8  9  2  0  0  0
 10 11  2  0  0  0
 10 12  1  0  0  0
 12 13  1  0  0  0
 12 21  1  0  0  0
 13 14  1  0  0  0
 14 15  1  0  0  0
 15 16  1  0  0  0
 16 17  1  0  0  0
 16 20  1  0  0  0
 17 18  2  0  0  0
 18 19  1  0  0  0
 19 20  2  0  0  0
 21 22  2  0  0  0
 21 25  1  0  0  0
 22 23  1  0  0  0
 23 24  2  0  0  0
 23 30  1  0  0  0
 24 25  1  0  0  0
 24 26  1  0  0  0
 26 27  2  0  0  0
 27 28  1  0  0  0
 27 29  1  0  0  0
 29 30  2  0  0  0
 30 31  1  0  0  0
M  END
>  <CHROM.0>
38.76412126,-170.65228124,108.81313177,-67.63693147,-31.13760342,63.15316193
-39.04534324,-158.68386022

>  <CHROM.1>
-19.02040126,37.81236930,-34.95057381,-5.65408758,60.15736841,150.51486390
-135.98726915,-20.13425731,20.51567656,-13.21597990,2.44902056,0.82389208
0.04412815

>  <Name>
F2972-0190

>  <RI>
2.5332e+07

>  <Rbt.Current_Directory>
/home/adria/Escritorio/rDock_CMTR_LC/2pxcA_model/inputs_sah

>  <Rbt.Executable>
rbdock ($Id: //depot/dev/client3/rdock/2013.1/src/exe/rbdock.cxx#4 $)

>  <Rbt.Library>
libRbt.so (2013.1, Build901 2013/11/27)

>  <Rbt.Parameter_File>
/home/adria/Escritorio/rDock_2013.1_src/data/scripts/dock.prm

>  <Rbt.Receptor>
sah_rdock.prm

>  <SCORE>
-257.993

>  <SCORE.INTER>
-21.8992

>  <SCORE.INTER.CONST>
1

>  <SCORE.INTER.POLAR>
-2.59602

>  <SCORE.INTER.REPUL>
0.0192451

>  <SCORE.INTER.ROT>
7

>  <SCORE.INTER.VDW>
-25.569

>  <SCORE.INTER.norm>
-0.706427

>  <SCORE.INTRA>
-234.649

>  <SCORE.INTRA.DIHEDRAL>
-41.2007

>  <SCORE.INTRA.DIHEDRAL.0>
53.783

>  <SCORE.INTRA.POLAR>
0

>  <SCORE.INTRA.POLAR.0>
0

>  <SCORE.INTRA.REPUL>
0

>  <SCORE.INTRA.REPUL.0>
0

>  <SCORE.INTRA.VDW>
-214.049

>  <SCORE.INTRA.VDW.0>
220.06

>  <SCORE.INTRA.norm>
-7.56933

>  <SCORE.RESTR>
0

>  <SCORE.RESTR.CAVITY>
0

>  <SCORE.RESTR.norm>
0

>  <SCORE.SYSTEM>
-1.44419

>  <SCORE.SYSTEM.CONST>
0

>  <SCORE.SYSTEM.DIHEDRAL>
11.0358

>  <SCORE.SYSTEM.POLAR>
-4.13879

>  <SCORE.SYSTEM.REPUL>
0.127117

>  <SCORE.SYSTEM.VDW>
6.4742

>  <SCORE.SYSTEM.norm>
-0.0465868

>  <SCORE.heavy>
31

>  <SCORE.norm>
-8.32235

$$$$
F2972-0190
  rDOCK(R)          3D
libRbt.so/2013.1/901 2013/11/27
 31 34  0  0  0  0  0  0  0  0999 V2000
  -19.2193   25.3320  -10.2699 C   0  0  0  0  0  0
  -20.5401   24.8180   -9.8328 C   0  0  0  0  0  0
  -20.9981   24.9336   -8.7031 O   0  0  0  0  0  0
  -21.3177   24.2086  -10.8944 C   0  0  0  0  0  0
  -22.1242   23.0935  -10.6659 C   0  0  0  0  0  0
  -22.3697   22.2560  -11.7227 C   0  0  0  0  0  0
  -21.5240   22.3967  -12.9084 C   0  0  0  0  0  0
  -21.6641   23.8693  -13.1176 C   0  0  0  0  0  0
  -21.1122   24.6637  -12.1615 C   0  0  0  0  0  0
  -20.6401   20.8441  -14.2026 C   0  0  0  0  0  0
  -19.8962   20.9053  -15.2569 O   0  0  0  0  0  0
  -20.4580   19.2022  -13.7781 N   0  0  0  0  0  0
  -21.3700   18.2226  -13.0282 C   0  0  0  0  0  0
  -22.5224   18.7377  -12.1604 C   0  0  0  0  0  0
  -23.1963   17.5127  -11.6933 C   0  0  0  0  0  0
  -24.3887   18.1285  -11.1087 N   0  0  0  0  0  0
  -24.3858   18.7075   -9.3904 C   0  0  0  0  0  0
  -25.8794   19.5442   -9.1108 C   0  0  0  0  0  0
  -26.8948   19.4929  -10.7815 N   0  0  0  0  0  0
  -25.9852   18.6642  -12.0046 C   0  0  0  0  0  0
  -19.3061   18.6158  -14.3267 C   0  0  0  0  0  0
  -18.3726   19.2646  -14.9638 N   0  0  0  0  0  0
  -17.5741   18.3763  -15.6570 C   0  0  0  0  0  0
  -17.9967   17.0452  -15.6577 C   0  0  0  0  0  0
  -19.3341   16.9096  -14.5689 S   0  0  0  0  0  0
  -17.3625   16.0694  -16.4527 C   0  0  0  0  0  0
  -16.2431   16.4512  -17.2127 C   0  0  0  0  0  0
  -15.5336   15.4500  -18.0808 C   0  0  0  0  0  0
  -15.7896   17.7741  -17.1725 C   0  0  0  0  0  0
  -16.4257   18.7474  -16.3839 C   0  0  0  0  0  0
  -15.8763   20.1418  -16.3185 C   0  0  0  0  0  0
  1  2  1  0  0  0
  2  3  2  0  0  0
  2  4  1  0  0  0
  4  5  2  0  0  0
  4  9  1  0  0  0
  5  6  1  0  0  0
  6  7  2  0  0  0
  7  8  1  0  0  0
  7 10  1  0  0  0
  8  9  2  0  0  0
 10 11  2  0  0  0
 10 12  1  0  0  0
 12 13  1  0  0  0
 12 21  1  0  0  0
 13 14  1  0  0  0
 14 15  1  0  0  0
 15 16  1  0  0  0
 16 17  1  0  0  0
 16 20  1  0  0  0
 17 18  2  0  0  0
 18 19  1  0  0  0
 19 20  2  0  0  0
 21 22  2  0  0  0
 21 25  1  0  0  0
 22 23  1  0  0  0
 23 24  2  0  0  0
 23 30  1  0  0  0
 24 25  1  0  0  0
 24 26  1  0  0  0
 26 27  2  0  0  0
 27 28  1  0  0  0
 27 29  1  0  0  0
 29 30  2  0  0  0
 30 31  1  0  0  0
M  END
>  <CHROM.0>
-175.52951090,-71.90251830,110.58853111,-60.51689089,-31.28833583,-55.92305069
-156.81023915,-160.53996144

>  <CHROM.1>
143.68397465,179.67289054,-17.89831586,7.75668572,176.51811310,-169.91918303
-87.15631015,-20.48307742,19.89458211,-13.24815168,-2.39068712,-0.53618595
-2.73700622

>  <Name>
F2972-0190

>  <RI>
2.5332e+07

>  <Rbt.Current_Directory>
/home/adria/Escritorio/rDock_CMTR_LC/2pxcA_model/inputs_sah

>  <Rbt.Executable>
rbdock ($Id: //depot/dev/client3/rdock/2013.1/src/exe/rbdock.cxx#4 $)

>  <Rbt.Library>
libRbt.so (2013.1, Build901 2013/11/27)

>  <Rbt.Parameter_File>
/home/adria/Escritorio/rDock_2013.1_src/data/scripts/dock.prm

>  <Rbt.Receptor>
sah_rdock.prm

>  <SCORE>
-253.267

>  <SCORE.INTER>
-11.7829

>  <SCORE.INTER.CONST>
1

>  <SCORE.INTER.POLAR>
0

>  <SCORE.INTER.REPUL>
0

>  <SCORE.INTER.ROT>
7

>  <SCORE.INTER.VDW>
-24.1829

>  <SCORE.INTER.norm>
-0.380093

>  <SCORE.INTRA>
-234.551

>  <SCORE.INTRA.DIHEDRAL>
-40.5217

>  <SCORE.INTRA.DIHEDRAL.0>
53.783

>  <SCORE.INTRA.POLAR>
0

>  <SCORE.INTRA.POLAR.0>
0

>  <SCORE.INTRA.REPUL>
0

>  <SCORE.INTRA.REPUL.0>
0

>  <SCORE.INTRA.VDW>
-214.29

>  <SCORE.INTRA.VDW.0>
220.06

>  <SCORE.INTRA.norm>
-7.56616

>  <SCORE.RESTR>
0

>  <SCORE.RESTR.CAVITY>
0

>  <SCORE.RESTR.norm>
0

>  <SCORE.SYSTEM>
-6.93329

>  <SCORE.SYSTEM.CONST>
0

>  <SCORE.SYSTEM.DIHEDRAL>
9.26504

>  <SCORE.SYSTEM.POLAR>
-4.62439

>  <SCORE.SYSTEM.REPUL>
0.036517

>  <SCORE.SYSTEM.VDW>
3.97454

>  <SCORE.SYSTEM.norm>
-0.223654

>  <SCORE.heavy>
31

>  <SCORE.norm>
-8.16991

$$$$
F2972-0190
  rDOCK(R)          3D
libRbt.so/2013.1/901 2013/11/27
 31 34  0  0  0  0  0  0  0  0999 V2000
  -25.1264   24.2378  -12.1783 C   0  0  0  0  0  0
  -23.8811   24.6217  -12.8868 C   0  0  0  0  0  0
  -23.7824   25.5532  -13.6753 O   0  0  0  0  0  0
  -22.7221   23.8342  -12.5131 C   0  0  0  0  0  0
  -21.4258   24.3367  -12.6277 C   0  0  0  0  0  0
  -20.4062   23.4379  -12.8047 C   0  0  0  0  0  0
  -20.7667   22.0720  -13.1858 C   0  0  0  0  0  0
  -21.7833   21.7980  -12.1258 C   0  0  0  0  0  0
  -22.9297   22.5263  -12.1951 C   0  0  0  0  0  0
  -19.8115   20.7146  -14.6390 C   0  0  0  0  0  0
  -18.9071   20.8988  -15.5427 O   0  0  0  0  0  0
  -19.8270   19.0115  -14.5453 N   0  0  0  0  0  0
  -20.9197   18.0093  -14.1513 C   0  0  0  0  0  0
  -21.5417   18.0430  -12.7519 C   0  0  0  0  0  0
  -22.7511   17.2093  -12.8757 C   0  0  0  0  0  0
  -23.6092   18.1706  -13.5700 N   0  0  0  0  0  0
  -24.0487   17.9317  -15.3129 C   0  0  0  0  0  0
  -25.2177   19.1417  -15.7352 C   0  0  0  0  0  0
  -25.5423   20.2184  -14.1350 N   0  0  0  0  0  0
  -24.5950   19.6169  -12.8118 C   0  0  0  0  0  0
  -18.6515   18.4220  -15.0375 C   0  0  0  0  0  0
  -17.6368   19.0795  -15.5236 N   0  0  0  0  0  0
  -16.8108   18.2190  -16.2197 C   0  0  0  0  0  0
  -17.2828   16.9147  -16.3820 C   0  0  0  0  0  0
  -18.7225   16.7470  -15.4377 S   0  0  0  0  0  0
  -16.6138   15.9839  -17.2021 C   0  0  0  0  0  0
  -15.4128   16.3779  -17.8176 C   0  0  0  0  0  0
  -14.6629   15.4247  -18.7056 C   0  0  0  0  0  0
  -14.9142   17.6691  -17.6140 C   0  0  0  0  0  0
  -15.5846   18.5980  -16.8007 C   0  0  0  0  0  0
  -14.9902   19.9536  -16.5567 C   0  0  0  0  0  0
  1  2  1  0  0  0
  2  3  2  0  0  0
  2  4  1  0  0  0
  4  5  2  0  0  0
  4  9  1  0  0  0
  5  6  1  0  0  0
  6  7  2  0  0  0
  7  8  1  0  0  0
  7 10  1  0  0  0
  8  9  2  0  0  0
 10 11  2  0  0  0
 10 12  1  0  0  0
 12 13  1  0  0  0
 12 21  1  0  0  0
 13 14  1  0  0  0
 14 15  1  0  0  0
 15 16  1  0  0  0
 16 17  1  0  0  0
 16 20  1  0  0  0
 17 18  2  0  0  0
 18 19  1  0  0  0
 19 20  2  0  0  0
 21 22  2  0  0  0
 21 25  1  0  0  0
 22 23  1  0  0  0
 23 24  2  0  0  0
 23 30  1  0  0  0
 24 25  1  0  0  0
 24 26  1  0  0  0
 26 27  2  0  0  0
 27 28  1  0  0  0
 27 29  1  0  0  0
 29 30  2  0  0  0
 30 31  1  0  0  0
M  END
>  <CHROM.0>
-61.95253433,66.48282297,76.86132566,64.92894360,168.42784103,-60.04697460
82.65750870,-49.01117283

>  <CHROM.1>
-154.03509268,-11.16800316,-60.77275046,-0.08515639,165.51128441,-76.89999177
109.07908630,-20.31377420,19.71893286,-14.66256565,-2.46962617,-0.32225907
-2.89179802

>  <Name>
F2972-0190

>  <RI>
2.5332e+07

>  <Rbt.Current_Directory>
/home/adria/Escritorio/rDock_CMTR_LC/2pxcA_model/inputs_sah

>  <Rbt.Executable>
rbdock ($Id: //depot/dev/client3/rdock/2013.1/src/exe/rbdock.cxx#4 $)

>  <Rbt.Library>
libRbt.so (2013.1, Build901 2013/11/27)

>  <Rbt.Parameter_File>
/home/adria/Escritorio/rDock_2013.1_src/data/scripts/dock.prm

>  <Rbt.Receptor>
sah_rdock.prm

>  <SCORE>
-250.622

>  <SCORE.INTER>
-15.539

>  <SCORE.INTER.CONST>
1

>  <SCORE.INTER.POLAR>
-0.880034

>  <SCORE.INTER.REPUL>
0

>  <SCORE.INTER.ROT>
7

>  <SCORE.INTER.VDW>
-24.9469

>  <SCORE.INTER.norm>
-0.501258

>  <SCORE.INTRA>
-234.843

>  <SCORE.INTRA.DIHEDRAL>
-42.9572

>  <SCORE.INTRA.DIHEDRAL.0>
53.783

>  <SCORE.INTRA.POLAR>
0

>  <SCORE.INTRA.POLAR.0>
0

>  <SCORE.INTRA.REPUL>
0

>  <SCORE.INTRA.REPUL.0>
0

>  <SCORE.INTRA.VDW>
-213.364

>  <SCORE.INTRA.VDW.0>
220.06

>  <SCORE.INTRA.norm>
-7.57557

>  <SCORE.RESTR>
0

>  <SCORE.RESTR.CAVITY>
0

>  <SCORE.RESTR.norm>
0

>  <SCORE.SYSTEM>
-0.240361

>  <SCORE.SYSTEM.CONST>
0

>  <SCORE.SYSTEM.DIHEDRAL>
5.49921

>  <SCORE.SYSTEM.POLAR>
-3.2795

>  <SCORE.SYSTEM.REPUL>
0.0142886

>  <SCORE.SYSTEM.VDW>
8.08888

>  <SCORE.SYSTEM.norm>
-0.00775357

>  <SCORE.heavy>
31

>  <SCORE.norm>
-8.08458

$$$$
F2972-0190
  rDOCK(R)          3D
libRbt.so/2013.1/901 2013/11/27
 31 34  0  0  0  0  0  0  0  0999 V2000
  -20.6452   25.9090   -9.8813 C   0  0  0  0  0  0
  -21.2344   25.7834  -11.2366 C   0  0  0  0  0  0
  -21.4305   26.7167  -12.0046 O   0  0  0  0  0  0
  -21.5063   24.4168  -11.6383 C   0  0  0  0  0  0
  -20.9369   23.3298  -10.9747 C   0  0  0  0  0  0
  -20.7632   22.1693  -11.6829 C   0  0  0  0  0  0
  -20.8744   22.2426  -13.1400 C   0  0  0  0  0  0
  -22.1886   22.9467  -13.2354 C   0  0  0  0  0  0
  -22.2123   24.2308  -12.7881 C   0  0  0  0  0  0
  -19.6578   21.2637  -14.6983 C   0  0  0  0  0  0
  -18.4435   21.4442  -15.1004 O   0  0  0  0  0  0
  -20.0091   19.7544  -15.4112 N   0  0  0  0  0  0
  -21.3241   19.1102  -15.8689 C   0  0  0  0  0  0
  -22.2699   18.4610  -14.8537 C   0  0  0  0  0  0
  -22.7268   19.5857  -14.0175 C   0  0  0  0  0  0
  -23.4739   18.8237  -13.0155 N   0  0  0  0  0  0
  -25.2652   18.5910  -13.1732 C   0  0  0  0  0  0
  -25.7679   17.4902  -11.9304 C   0  0  0  0  0  0
  -24.1708   16.9881  -10.9192 N   0  0  0  0  0  0
  -22.7734   17.7675  -11.5900 C   0  0  0  0  0  0
  -18.8588   19.0223  -15.7462 C   0  0  0  0  0  0
  -17.6961   19.5457  -16.0153 N   0  0  0  0  0  0
  -16.8892   18.6061  -16.6262 C   0  0  0  0  0  0
  -17.5004   17.3934  -16.9523 C   0  0  0  0  0  0
  -19.0888   17.3955  -16.2671 S   0  0  0  0  0  0
  -16.8352   16.4128  -17.7156 C   0  0  0  0  0  0
  -15.5047   16.6545  -18.1001 C   0  0  0  0  0  0
  -14.7521   15.6430  -18.9186 C   0  0  0  0  0  0
  -14.8764   17.8484  -17.7300 C   0  0  0  0  0  0
  -15.5420   18.8276  -16.9737 C   0  0  0  0  0  0
  -14.8182   20.0694  -16.5440 C   0  0  0  0  0  0
  1  2  1  0  0  0
  2  3  2  0  0  0
  2  4  1  0  0  0
  4  5  2  0  0  0
  4  9  1  0  0  0
  5  6  1  0  0  0
  6  7  2  0  0  0
  7  8  1  0  0  0
  7 10  1  0  0  0
  8  9  2  0  0  0
 10 11  2  0  0  0
 10 12  1  0  0  0
 12 13  1  0  0  0
 12 21  1  0  0  0
 13 14  1  0  0  0
 14 15  1  0  0  0
 15 16  1  0  0  0
 16 17  1  0  0  0
 16 20  1  0  0  0
 17 18  2  0  0  0
 18 19  1  0  0  0
 19 20  2  0  0  0
 21 22  2  0  0  0
 21 25  1  0  0  0
 22 23  1  0  0  0
 23 24  2  0  0  0
 23 30  1  0  0  0
 24 25  1  0  0  0
 24 26  1  0  0  0
 26 27  2  0  0  0
 27 28  1  0  0  0
 27 29  1  0  0  0
 29 30  2  0  0  0
 30 31  1  0  0  0
M  END
>  <CHROM.0>
-60.01255192,-73.65668574,-166.78507894,-145.51619029,-28.22574026,60.40132451
83.71526255,-157.48096503

>  <CHROM.1>
-16.39442392,-70.74600359,-79.35714957,-26.34415341,65.33182317,-173.59412240
-95.57628697,-19.97041217,20.05529804,-14.41645047,-2.31983748,-0.49043388
-2.75100932

>  <Name>
F2972-0190

>  <RI>
2.5332e+07

>  <Rbt.Current_Directory>
/home/adria/Escritorio/rDock_CMTR_LC/2pxcA_model/inputs_sah

>  <Rbt.Executable>
rbdock ($Id: //depot/dev/client3/rdock/2013.1/src/exe/rbdock.cxx#4 $)

>  <Rbt.Library>
libRbt.so (2013.1, Build901 2013/11/27)

>  <Rbt.Parameter_File>
/home/adria/Escritorio/rDock_2013.1_src/data/scripts/dock.prm

>  <Rbt.Receptor>
sah_rdock.prm

>  <SCORE>
-252.78

>  <SCORE.INTER>
-19.559

>  <SCORE.INTER.CONST>
1

>  <SCORE.INTER.POLAR>
-1.78152

>  <SCORE.INTER.REPUL>
0

>  <SCORE.INTER.ROT>
7

>  <SCORE.INTER.VDW>
-25.9018

>  <SCORE.INTER.norm>
-0.630937

>  <SCORE.INTRA>
-229.343

>  <SCORE.INTRA.DIHEDRAL>
-30.0304

>  <SCORE.INTRA.DIHEDRAL.0>
53.783

>  <SCORE.INTRA.POLAR>
0

>  <SCORE.INTRA.POLAR.0>
0

>  <SCORE.INTRA.REPUL>
0

>  <SCORE.INTRA.REPUL.0>
0

>  <SCORE.INTRA.VDW>
-214.327

>  <SCORE.INTRA.VDW.0>
220.06

>  <SCORE.INTRA.norm>
-7.39815

>  <SCORE.RESTR>
0

>  <SCORE.RESTR.CAVITY>
0

>  <SCORE.RESTR.norm>
0

>  <SCORE.SYSTEM>
-3.87879

>  <SCORE.SYSTEM.CONST>
0

>  <SCORE.SYSTEM.DIHEDRAL>
11.5902

>  <SCORE.SYSTEM.POLAR>
-4.0221

>  <SCORE.SYSTEM.REPUL>
0.0396871

>  <SCORE.SYSTEM.VDW>
3.80281

>  <SCORE.SYSTEM.norm>
-0.125122

>  <SCORE.heavy>
31

>  <SCORE.norm>
-8.15421

$$$$
F2972-0190
  rDOCK(R)          3D
libRbt.so/2013.1/901 2013/11/27
 31 34  0  0  0  0  0  0  0  0999 V2000
  -24.7470   23.5613  -12.9071 C   0  0  0  0  0  0
  -23.3729   23.9305  -13.3259 C   0  0  0  0  0  0
  -23.0590   24.9986  -13.8357 O   0  0  0  0  0  0
  -22.3707   22.9306  -13.0116 C   0  0  0  0  0  0
  -21.0124   23.2440  -12.9598 C   0  0  0  0  0  0
  -20.1154   22.2396  -13.2148 C   0  0  0  0  0  0
  -20.6267   21.0169  -13.8348 C   0  0  0  0  0  0
  -21.7596   20.7415  -12.9006 C   0  0  0  0  0  0
  -22.7840   21.6358  -12.9240 C   0  0  0  0  0  0
  -19.7457   19.7670  -15.4249 C   0  0  0  0  0  0
  -18.5540   19.6922  -15.9177 O   0  0  0  0  0  0
  -20.4358   18.3332  -16.0392 N   0  0  0  0  0  0
  -21.8817   17.9447  -16.3741 C   0  0  0  0  0  0
  -23.0033   18.1564  -15.3525 C   0  0  0  0  0  0
  -22.6245   17.2939  -14.2186 C   0  0  0  0  0  0
  -23.3545   17.9923  -13.1593 N   0  0  0  0  0  0
  -22.6572   18.1357  -11.4917 C   0  0  0  0  0  0
  -23.6937   19.1792  -10.5720 C   0  0  0  0  0  0
  -25.1487   19.7393  -11.7528 N   0  0  0  0  0  0
  -24.9331   19.0493  -13.3300 C   0  0  0  0  0  0
  -19.4779   17.3788  -16.4175 C   0  0  0  0  0  0
  -19.7041   16.3740  -17.2160 N   0  0  0  0  0  0
  -18.6793   15.4539  -17.1132 C   0  0  0  0  0  0
  -17.7332   15.7001  -16.1158 C   0  0  0  0  0  0
  -18.0628   17.2585  -15.4410 S   0  0  0  0  0  0
  -16.7289   14.7621  -15.8028 C   0  0  0  0  0  0
  -16.6580   13.5810  -16.5620 C   0  0  0  0  0  0
  -15.6088   12.5462  -16.2657 C   0  0  0  0  0  0
  -17.5754   13.3578  -17.5943 C   0  0  0  0  0  0
  -18.5795   14.2911  -17.9022 C   0  0  0  0  0  0
  -19.5085   14.0464  -19.0544 C   0  0  0  0  0  0
  1  2  1  0  0  0
  2  3  2  0  0  0
  2  4  1  0  0  0
  4  5  2  0  0  0
  4  9  1  0  0  0
  5  6  1  0  0  0
  6  7  2  0  0  0
  7  8  1  0  0  0
  7 10  1  0  0  0
  8  9  2  0  0  0
 10 11  2  0  0  0
 10 12  1  0  0  0
 12 13  1  0  0  0
 12 21  1  0  0  0
 13 14  1  0  0  0
 14 15  1  0  0  0
 15 16  1  0  0  0
 16 17  1  0  0  0
 16 20  1  0  0  0
 17 18  2  0  0  0
 18 19  1  0  0  0
 19 20  2  0  0  0
 21 22  2  0  0  0
 21 25  1  0  0  0
 22 23  1  0  0  0
 23 24  2  0  0  0
 23 30  1  0  0  0
 24 25  1  0  0  0
 24 26  1  0  0  0
 26 27  2  0  0  0
 27 28  1  0  0  0
 27 29  1  0  0  0
 29 30  2  0  0  0
 30 31  1  0  0  0
M  END
>  <CHROM.0>
-178.24807435,66.18638607,109.91258528,63.32192042,-32.31645150,177.55195692
-156.51123860,-161.28553295

>  <CHROM.1>
-160.75048697,15.95259139,-50.73494790,-161.21902771,-62.43374315,156.18752447
-143.56524088,-20.69714314,18.49571249,-14.81007337,2.21945670,0.46582884
0.17060706

>  <Name>
F2972-0190

>  <RI>
2.5332e+07

>  <Rbt.Current_Directory>
/home/adria/Escritorio/rDock_CMTR_LC/2pxcA_model/inputs_sah

>  <Rbt.Executable>
rbdock ($Id: //depot/dev/client3/rdock/2013.1/src/exe/rbdock.cxx#4 $)

>  <Rbt.Library>
libRbt.so (2013.1, Build901 2013/11/27)

>  <Rbt.Parameter_File>
/home/adria/Escritorio/rDock_2013.1_src/data/scripts/dock.prm

>  <Rbt.Receptor>
sah_rdock.prm

>  <SCORE>
-249.368

>  <SCORE.INTER>
-8.83728

>  <SCORE.INTER.CONST>
1

>  <SCORE.INTER.POLAR>
-0.894427

>  <SCORE.INTER.REPUL>
0.015874

>  <SCORE.INTER.ROT>
7

>  <SCORE.INTER.VDW>
-18.2756

>  <SCORE.INTER.norm>
-0.285074

>  <SCORE.INTRA>
-233.786

>  <SCORE.INTRA.DIHEDRAL>
-35.9026

>  <SCORE.INTRA.DIHEDRAL.0>
53.783

>  <SCORE.INTRA.POLAR>
0

>  <SCORE.INTRA.POLAR.0>
0

>  <SCORE.INTRA.REPUL>
0

>  <SCORE.INTRA.REPUL.0>
0

>  <SCORE.INTRA.VDW>
-215.834

>  <SCORE.INTRA.VDW.0>
220.06

>  <SCORE.INTRA.norm>
-7.54148

>  <SCORE.RESTR>
0

>  <SCORE.RESTR.CAVITY>
0

>  <SCORE.RESTR.norm>
0

>  <SCORE.SYSTEM>
-6.74468

>  <SCORE.SYSTEM.CONST>
0

>  <SCORE.SYSTEM.DIHEDRAL>
8.48288

>  <SCORE.SYSTEM.POLAR>
-4.30142

>  <SCORE.SYSTEM.VDW>
3.63871

>  <SCORE.SYSTEM.norm>
-0.21757

>  <SCORE.heavy>
31

>  <SCORE.norm>
-8.04412

$$$$
F2972-0190
  rDOCK(R)          3D
libRbt.so/2013.1/901 2013/11/27
 31 34  0  0  0  0  0  0  0  0999 V2000
  -25.4893   22.6548   -9.2169 C   0  0  0  0  0  0
  -25.0992   21.2611   -8.8924 C   0  0  0  0  0  0
  -25.1082   20.7745   -7.7689 O   0  0  0  0  0  0
  -24.7626   20.4569  -10.0513 C   0  0  0  0  0  0
  -24.5612   19.0798   -9.9553 C   0  0  0  0  0  0
  -23.7401   18.4888  -10.8800 C   0  0  0  0  0  0
  -22.8860   19.3637  -11.6838 C   0  0  0  0  0  0
  -23.9258   20.3234  -12.1630 C   0  0  0  0  0  0
  -24.4919   21.1146  -11.2128 C   0  0  0  0  0  0
  -20.7843   19.1031  -12.3016 C   0  0  0  0  0  0
  -19.9001   18.2008  -12.0321 O   0  0  0  0  0  0
  -20.0488   19.8852  -13.6270 N   0  0  0  0  0  0
  -20.1518   21.3173  -14.1675 C   0  0  0  0  0  0
  -20.2371   22.5090  -13.2088 C   0  0  0  0  0  0
  -21.6239   22.4711  -12.7104 C   0  0  0  0  0  0
  -21.6907   23.8206  -12.1473 N   0  0  0  0  0  0
  -20.5063   24.3581  -10.8839 C   0  0  0  0  0  0
  -20.7645   26.0500  -10.6013 C   0  0  0  0  0  0
  -22.2164   26.6205  -11.7810 N   0  0  0  0  0  0
  -22.7613   25.2829  -12.7424 C   0  0  0  0  0  0
  -19.0787   19.0948  -14.2640 C   0  0  0  0  0  0
  -18.1024   19.5585  -14.9920 N   0  0  0  0  0  0
  -17.5469   18.5367  -15.7368 C   0  0  0  0  0  0
  -18.2063   17.3071  -15.6768 C   0  0  0  0  0  0
  -19.4428   17.4231  -14.4726 S   0  0  0  0  0  0
  -17.8368   16.2297  -16.5070 C   0  0  0  0  0  0
  -16.7388   16.3965  -17.3689 C   0  0  0  0  0  0
  -16.3068   15.2801  -18.2780 C   0  0  0  0  0  0
  -16.0472   17.6124  -17.3921 C   0  0  0  0  0  0
  -16.4195   18.6876  -16.5681 C   0  0  0  0  0  0
  -15.6185   19.9560  -16.5759 C   0  0  0  0  0  0
  1  2  1  0  0  0
  2  3  2  0  0  0
  2  4  1  0  0  0
  4  5  2  0  0  0
  4  9  1  0  0  0
  5  6  1  0  0  0
  6  7  2  0  0  0
  7  8  1  0  0  0
  7 10  1  0  0  0
  8  9  2  0  0  0
 10 11  2  0  0  0
 10 12  1  0  0  0
 12 13  1  0  0  0
 12 21  1  0  0  0
 13 14  1  0  0  0
 14 15  1  0  0  0
 15 16  1  0  0  0
 16 17  1  0  0  0
 16 20  1  0  0  0
 17 18  2  0  0  0
 18 19  1  0  0  0
 19 20  2  0  0  0
 21 22  2  0  0  0
 21 25  1  0  0  0
 22 23  1  0  0  0
 23 24  2  0  0  0
 23 30  1  0  0  0
 24 25  1  0  0  0
 24 26  1  0  0  0
 26 27  2  0  0  0
 27 28  1  0  0  0
 27 29  1  0  0  0
 29 30  2  0  0  0
 30 31  1  0  0  0
M  END
>  <CHROM.0>
-163.23246098,66.39980616,100.67525728,64.38132218,168.46141753,63.45297274
83.14782081,-41.02283401

>  <CHROM.1>
-170.60662378,-4.13078459,38.76116537,-157.21775756,-75.83487754,-164.50944269
-56.99094304,-20.66879038,20.20721283,-13.12267972,2.54841084,0.69255779
0.13023474

>  <Name>
F2972-0190

>  <RI>
2.5332e+07

>  <Rbt.Current_Directory>
/home/adria/Escritorio/rDock_CMTR_LC/2pxcA_model/inputs_sah

>  <Rbt.Executable>
rbdock ($Id: //depot/dev/client3/rdock/2013.1/src/exe/rbdock.cxx#4 $)

>  <Rbt.Library>
libRbt.so (2013.1, Build901 2013/11/27)

>  <Rbt.Parameter_File>
/home/adria/Escritorio/rDock_2013.1_src/data/scripts/dock.prm

>  <Rbt.Receptor>
sah_rdock.prm

>  <SCORE>
-253.602

>  <SCORE.INTER>
-22.7403

>  <SCORE.INTER.CONST>
1

>  <SCORE.INTER.POLAR>
-2.90088

>  <SCORE.INTER.REPUL>
0

>  <SCORE.INTER.ROT>
7

>  <SCORE.INTER.VDW>
-25.2774

>  <SCORE.INTER.norm>
-0.733559

>  <SCORE.INTRA>
-232.36

>  <SCORE.INTRA.DIHEDRAL>
-34.0792

>  <SCORE.INTRA.DIHEDRAL.0>
53.783

>  <SCORE.INTRA.POLAR>
0

>  <SCORE.INTRA.POLAR.0>
0

>  <SCORE.INTRA.REPUL>
0

>  <SCORE.INTRA.REPUL.0>
0

>  <SCORE.INTRA.VDW>
-215.32

>  <SCORE.INTRA.VDW.0>
220.06

>  <SCORE.INTRA.norm>
-7.49548

>  <SCORE.RESTR>
0

>  <SCORE.RESTR.CAVITY>
0

>  <SCORE.RESTR.norm>
0

>  <SCORE.SYSTEM>
1.49847

>  <SCORE.SYSTEM.CONST>
0

>  <SCORE.SYSTEM.DIHEDRAL>
8.25021

>  <SCORE.SYSTEM.POLAR>
-3.57658

>  <SCORE.SYSTEM.REPUL>
0.0345798

>  <SCORE.SYSTEM.VDW>
9.36084

>  <SCORE.SYSTEM.norm>
0.0483378

>  <SCORE.heavy>
31

>  <SCORE.norm>
-8.1807

$$$$
F2972-0190
  rDOCK(R)          3D
libRbt.so/2013.1/901 2013/11/27
 31 34  0  0  0  0  0  0  0  0999 V2000
  -23.0661   26.5048  -12.3183 C   0  0  0  0  0  0
  -23.4524   25.2105  -12.9309 C   0  0  0  0  0  0
  -24.3771   25.0564  -13.7186 O   0  0  0  0  0  0
  -22.5809   24.1064  -12.5781 C   0  0  0  0  0  0
  -21.2376   24.3051  -12.2584 C   0  0  0  0  0  0
  -20.3686   23.2689  -12.4806 C   0  0  0  0  0  0
  -20.8308   22.1673  -13.3254 C   0  0  0  0  0  0
  -22.1254   21.8779  -12.6383 C   0  0  0  0  0  0
  -23.0765   22.8462  -12.7236 C   0  0  0  0  0  0
  -19.7544   21.0393  -14.8861 C   0  0  0  0  0  0
  -18.6003   21.2026  -15.4430 O   0  0  0  0  0  0
  -20.1200   19.4452  -15.3708 N   0  0  0  0  0  0
  -21.4499   18.7142  -15.5956 C   0  0  0  0  0  0
  -22.4468   19.2131  -16.6462 C   0  0  0  0  0  0
  -23.7057   18.5279  -16.3016 C   0  0  0  0  0  0
  -24.6439   19.5688  -16.7246 N   0  0  0  0  0  0
  -25.5933   20.5139  -15.5026 C   0  0  0  0  0  0
  -26.4392   21.7715  -16.3464 C   0  0  0  0  0  0
  -25.9818   21.6085  -18.2409 N   0  0  0  0  0  0
  -24.8709   20.2962  -18.4732 C   0  0  0  0  0  0
  -18.9846   18.7095  -15.7464 C   0  0  0  0  0  0
  -17.8143   19.2245  -15.9980 N   0  0  0  0  0  0
  -17.0274   18.3004  -16.6568 C   0  0  0  0  0  0
  -17.6617   17.1150  -17.0351 C   0  0  0  0  0  0
  -19.2462   17.1130  -16.3409 S   0  0  0  0  0  0
  -17.0180   16.1596  -17.8470 C   0  0  0  0  0  0
  -15.6855   16.3956  -18.2280 C   0  0  0  0  0  0
  -14.9553   15.4103  -19.0971 C   0  0  0  0  0  0
  -15.0342   17.5599  -17.8067 C   0  0  0  0  0  0
  -15.6783   18.5143  -17.0018 C   0  0  0  0  0  0
  -14.9304   19.7219  -16.5193 C   0  0  0  0  0  0
  1  2  1  0  0  0
  2  3  2  0  0  0
  2  4  1  0  0  0
  4  5  2  0  0  0
  4  9  1  0  0  0
  5  6  1  0  0  0
  6  7  2  0  0  0
  7  8  1  0  0  0
  7 10  1  0  0  0
  8  9  2  0  0  0
 10 11  2  0  0  0
 10 12  1  0  0  0
 12 13  1  0  0  0
 12 21  1  0  0  0
 13 14  1  0  0  0
 14 15  1  0  0  0
 15 16  1  0  0  0
 16 17  1  0  0  0
 16 20  1  0  0  0
 17 18  2  0  0  0
 18 19  1  0  0  0
 19 20  2  0  0  0
 21 22  2  0  0  0
 21 25  1  0  0  0
 22 23  1  0  0  0
 23 24  2  0  0  0
 23 30  1  0  0  0
 24 25  1  0  0  0
 24 26  1  0  0  0
 26 27  2  0  0  0
 27 28  1  0  0  0
 27 29  1  0  0  0
 29 30  2  0  0  0
 30 31  1  0  0  0
M  END
>  <CHROM.0>
-62.64592178,61.36172719,-46.70234964,62.77216403,-32.42904794,59.53263257
83.77057371,-162.86104966

>  <CHROM.1>
-28.27384192,-8.09568904,60.57465134,-14.58482417,-164.25782109,147.69857576
-109.67333581,-20.57577520,20.25661947,-15.61692194,-2.39292440,0.15993519
-2.46869768

>  <Name>
F2972-0190

>  <RI>
2.5332e+07

>  <Rbt.Current_Directory>
/home/adria/Escritorio/rDock_CMTR_LC/2pxcA_model/inputs_sah

>  <Rbt.Executable>
rbdock ($Id: //depot/dev/client3/rdock/2013.1/src/exe/rbdock.cxx#4 $)

>  <Rbt.Library>
libRbt.so (2013.1, Build901 2013/11/27)

>  <Rbt.Parameter_File>
/home/adria/Escritorio/rDock_2013.1_src/data/scripts/dock.prm

>  <Rbt.Receptor>
sah_rdock.prm

>  <SCORE>
-256.515

>  <SCORE.INTER>
-15.9378

>  <SCORE.INTER.CONST>
1

>  <SCORE.INTER.POLAR>
-0.176832

>  <SCORE.INTER.REPUL>
0

>  <SCORE.INTER.ROT>
7

>  <SCORE.INTER.VDW>
-27.7366

>  <SCORE.INTER.norm>
-0.514123

>  <SCORE.INTRA>
-233.487

>  <SCORE.INTRA.DIHEDRAL>
-40.3619

>  <SCORE.INTRA.DIHEDRAL.0>
53.783

>  <SCORE.INTRA.POLAR>
0

>  <SCORE.INTRA.POLAR.0>
0

>  <SCORE.INTRA.REPUL>
0

>  <SCORE.INTRA.REPUL.0>
0

>  <SCORE.INTRA.VDW>
-213.307

>  <SCORE.INTRA.VDW.0>
220.06

>  <SCORE.INTRA.norm>
-7.53185

>  <SCORE.RESTR>
0

>  <SCORE.RESTR.CAVITY>
0

>  <SCORE.RESTR.norm>
0

>  <SCORE.SYSTEM>
-7.09014

>  <SCORE.SYSTEM.CONST>
0

>  <SCORE.SYSTEM.DIHEDRAL>
5.28449

>  <SCORE.SYSTEM.POLAR>
-3.66808

>  <SCORE.SYSTEM.VDW>
2.73907

>  <SCORE.SYSTEM.norm>
-0.228714

>  <SCORE.heavy>
31

>  <SCORE.norm>
-8.27469

$$$$
F2972-0190
  rDOCK(R)          3D
libRbt.so/2013.1/901 2013/11/27
 31 34  0  0  0  0  0  0  0  0999 V2000
  -25.0088   24.2957  -12.0357 C   0  0  0  0  0  0
  -23.7936   24.6462  -12.8105 C   0  0  0  0  0  0
  -23.7303   25.5350  -13.6504 O   0  0  0  0  0  0
  -22.6167   23.8842  -12.4403 C   0  0  0  0  0  0
  -21.3285   24.3831  -12.6347 C   0  0  0  0  0  0
  -20.3123   23.4787  -12.8020 C   0  0  0  0  0  0
  -20.6808   22.0926  -13.0915 C   0  0  0  0  0  0
  -21.6529   21.8755  -11.9779 C   0  0  0  0  0  0
  -22.8048   22.5956  -12.0417 C   0  0  0  0  0  0
  -19.7776   20.6586  -14.5038 C   0  0  0  0  0  0
  -18.9573   20.8037  -15.4911 O   0  0  0  0  0  0
  -19.7019   18.9705  -14.2714 N   0  0  0  0  0  0
  -20.7096   17.9598  -13.7086 C   0  0  0  0  0  0
  -22.1951   18.0547  -14.0705 C   0  0  0  0  0  0
  -22.6131   19.3627  -13.5344 C   0  0  0  0  0  0
  -23.9985   19.3599  -14.0067 N   0  0  0  0  0  0
  -24.3738   19.3163  -15.7802 C   0  0  0  0  0  0
  -26.0893   19.1273  -15.9542 C   0  0  0  0  0  0
  -26.8490   19.0388  -14.1541 N   0  0  0  0  0  0
  -25.5856   19.1479  -12.9700 C   0  0  0  0  0  0
  -18.5414   18.3917  -14.8096 C   0  0  0  0  0  0
  -17.5523   19.0586  -15.3344 N   0  0  0  0  0  0
  -16.7465   18.2058  -16.0629 C   0  0  0  0  0  0
  -17.2128   16.8974  -16.2079 C   0  0  0  0  0  0
  -18.6130   16.7164  -15.2082 S   0  0  0  0  0  0
  -16.5680   15.9730  -17.0542 C   0  0  0  0  0  0
  -15.3956   16.3781  -17.7158 C   0  0  0  0  0  0
  -14.6724   15.4321  -18.6332 C   0  0  0  0  0  0
  -14.9010   17.6736  -17.5307 C   0  0  0  0  0  0
  -15.5473   18.5960  -16.6910 C   0  0  0  0  0  0
  -14.9559   19.9568  -16.4693 C   0  0  0  0  0  0
  1  2  1  0  0  0
  2  3  2  0  0  0
  2  4  1  0  0  0
  4  5  2  0  0  0
  4  9  1  0  0  0
  5  6  1  0  0  0
  6  7  2  0  0  0
  7  8  1  0  0  0
  7 10  1  0  0  0
  8  9  2  0  0  0
 10 11  2  0  0  0
 10 12  1  0  0  0
 12 13  1  0  0  0
 12 21  1  0  0  0
 13 14  1  0  0  0
 14 15  1  0  0  0
 15 16  1  0  0  0
 16 17  1  0  0  0
 16 20  1  0  0  0
 17 18  2  0  0  0
 18 19  1  0  0  0
 19 20  2  0  0  0
 21 22  2  0  0  0
 21 25  1  0  0  0
 22 23  1  0  0  0
 23 24  2  0  0  0
 23 30  1  0  0  0
 24 25  1  0  0  0
 24 26  1  0  0  0
 26 27  2  0  0  0
 27 28  1  0  0  0
 27 29  1  0  0  0
 29 30  2  0  0  0
 30 31  1  0  0  0
M  END
>  <CHROM.0>
177.53575443,-171.32758267,-164.13747193,67.72652265,-30.07582222,-60.82858084
81.76324697,-160.49571527

>  <CHROM.1>
-154.24623244,-14.86786139,41.15942638,5.68512116,-62.20422280,176.92822241
-62.31383501,-20.39231267,19.81509768,-14.65935352,-2.48312788,-0.20325768
-2.78295945

>  <Name>
F2972-0190

>  <RI>
2.5332e+07

>  <Rbt.Current_Directory>
/home/adria/Escritorio/rDock_CMTR_LC/2pxcA_model/inputs_sah

>  <Rbt.Executable>
rbdock ($Id: //depot/dev/client3/rdock/2013.1/src/exe/rbdock.cxx#4 $)

>  <Rbt.Library>
libRbt.so (2013.1, Build901 2013/11/27)

>  <Rbt.Parameter_File>
/home/adria/Escritorio/rDock_2013.1_src/data/scripts/dock.prm

>  <Rbt.Receptor>
sah_rdock.prm

>  <SCORE>
-254.943

>  <SCORE.INTER>
-14.3666

>  <SCORE.INTER.CONST>
1

>  <SCORE.INTER.POLAR>
-0.894427

>  <SCORE.INTER.REPUL>
0

>  <SCORE.INTER.ROT>
7

>  <SCORE.INTER.VDW>
-23.7255

>  <SCORE.INTER.norm>
-0.463437

>  <SCORE.INTRA>
-234.969

>  <SCORE.INTRA.DIHEDRAL>
-41.9584

>  <SCORE.INTRA.DIHEDRAL.0>
53.783

>  <SCORE.INTRA.POLAR>
0

>  <SCORE.INTRA.POLAR.0>
0

>  <SCORE.INTRA.REPUL>
0

>  <SCORE.INTRA.REPUL.0>
0

>  <SCORE.INTRA.VDW>
-213.99

>  <SCORE.INTRA.VDW.0>
220.06

>  <SCORE.INTRA.norm>
-7.57965

>  <SCORE.RESTR>
0.0075644

>  <SCORE.RESTR.CAVITY>
0.0075644

>  <SCORE.RESTR.norm>
0.000244013

>  <SCORE.SYSTEM>
-5.6146

>  <SCORE.SYSTEM.CONST>
0

>  <SCORE.SYSTEM.DIHEDRAL>
6.44148

>  <SCORE.SYSTEM.POLAR>
-3.57781

>  <SCORE.SYSTEM.VDW>
3.32922

>  <SCORE.SYSTEM.norm>
-0.181116

>  <SCORE.heavy>
31

>  <SCORE.norm>
-8.22396

$$$$
F2972-0190
  rDOCK(R)          3D
libRbt.so/2013.1/901 2013/11/27
 31 34  0  0  0  0  0  0  0  0999 V2000
  -26.7266   20.8497  -12.0154 C   0  0  0  0  0  0
  -26.3760   19.4086  -12.0213 C   0  0  0  0  0  0
  -27.0222   18.5326  -12.5820 O   0  0  0  0  0  0
  -25.1258   19.1019  -11.3535 C   0  0  0  0  0  0
  -24.3907   20.0820  -10.6864 C   0  0  0  0  0  0
  -23.0370   19.8990  -10.5746 C   0  0  0  0  0  0
  -22.4188   18.8829  -11.4268 C   0  0  0  0  0  0
  -23.3223   17.7361  -11.1100 C   0  0  0  0  0  0
  -24.6092   17.8547  -11.5336 C   0  0  0  0  0  0
  -20.5094   18.9392  -12.5304 C   0  0  0  0  0  0
  -19.6093   18.0428  -12.7651 O   0  0  0  0  0  0
  -20.0627   20.1421  -13.6541 N   0  0  0  0  0  0
  -20.2472   21.6651  -13.6639 C   0  0  0  0  0  0
  -20.7509   22.3982  -12.4168 C   0  0  0  0  0  0
  -21.1857   23.7126  -12.9232 C   0  0  0  0  0  0
  -20.8979   24.5121  -11.7313 N   0  0  0  0  0  0
  -19.2969   24.3802  -10.8902 C   0  0  0  0  0  0
  -19.2446   25.5985   -9.6565 C   0  0  0  0  0  0
  -20.9379   26.5741   -9.7323 N   0  0  0  0  0  0
  -21.9314   25.9421  -11.0065 C   0  0  0  0  0  0
  -19.2740   19.6482  -14.7056 C   0  0  0  0  0  0
  -18.9520   18.3961  -14.8691 N   0  0  0  0  0  0
  -17.9137   18.2935  -15.7739 C   0  0  0  0  0  0
  -17.3470   19.4986  -16.1946 C   0  0  0  0  0  0
  -18.3130   20.7897  -15.5681 S   0  0  0  0  0  0
  -16.1846   19.5298  -16.9912 C   0  0  0  0  0  0
  -15.6293   18.3083  -17.4107 C   0  0  0  0  0  0
  -14.3876   18.2863  -18.2575 C   0  0  0  0  0  0
  -16.2269   17.1019  -17.0303 C   0  0  0  0  0  0
  -17.3824   17.0716  -16.2318 C   0  0  0  0  0  0
  -18.0305   15.7619  -15.8928 C   0  0  0  0  0  0
  1  2  1  0  0  0
  2  3  2  0  0  0
  2  4  1  0  0  0
  4  5  2  0  0  0
  4  9  1  0  0  0
  5  6  1  0  0  0
  6  7  2  0  0  0
  7  8  1  0  0  0
  7 10  1  0  0  0
  8  9  2  0  0  0
 10 11  2  0  0  0
 10 12  1  0  0  0
 12 13  1  0  0  0
 12 21  1  0  0  0
 13 14  1  0  0  0
 14 15  1  0  0  0
 15 16  1  0  0  0
 16 17  1  0  0  0
 16 20  1  0  0  0
 17 18  2  0  0  0
 18 19  1  0  0  0
 19 20  2  0  0  0
 21 22  2  0  0  0
 21 25  1  0  0  0
 22 23  1  0  0  0
 23 24  2  0  0  0
 23 30  1  0  0  0
 24 25  1  0  0  0
 24 26  1  0  0  0
 26 27  2  0  0  0
 27 28  1  0  0  0
 27 29  1  0  0  0
 29 30  2  0  0  0
 30 31  1  0  0  0
M  END
>  <CHROM.0>
-64.78213073,-72.35027340,-9.10383314,-58.34402954,167.62860749,-176.90995007
-157.61140660,-169.80232900

>  <CHROM.1>
4.54866580,142.55709939,9.57728903,3.07898958,-163.11098759,-149.15185735
48.67633914,-20.49189210,20.26165884,-13.41952924,2.55338066,0.46255797,0.43312707

>  <Name>
F2972-0190

>  <RI>
2.5332e+07

>  <Rbt.Current_Directory>
/home/adria/Escritorio/rDock_CMTR_LC/2pxcA_model/inputs_sah

>  <Rbt.Executable>
rbdock ($Id: //depot/dev/client3/rdock/2013.1/src/exe/rbdock.cxx#4 $)

>  <Rbt.Library>
libRbt.so (2013.1, Build901 2013/11/27)

>  <Rbt.Parameter_File>
/home/adria/Escritorio/rDock_2013.1_src/data/scripts/dock.prm

>  <Rbt.Receptor>
sah_rdock.prm

>  <SCORE>
-253.33

>  <SCORE.INTER>
-19.7802

>  <SCORE.INTER.CONST>
1

>  <SCORE.INTER.POLAR>
-1.59469

>  <SCORE.INTER.REPUL>
0

>  <SCORE.INTER.ROT>
7

>  <SCORE.INTER.VDW>
-26.7583

>  <SCORE.INTER.norm>
-0.638071

>  <SCORE.INTRA>
-231.213

>  <SCORE.INTRA.DIHEDRAL>
-37.5398

>  <SCORE.INTRA.DIHEDRAL.0>
53.783

>  <SCORE.INTRA.POLAR>
0

>  <SCORE.INTRA.POLAR.0>
0

>  <SCORE.INTRA.REPUL>
0

>  <SCORE.INTRA.REPUL.0>
0

>  <SCORE.INTRA.VDW>
-212.443

>  <SCORE.INTRA.VDW.0>
220.06

>  <SCORE.INTRA.norm>
-7.45848

>  <SCORE.RESTR>
0

>  <SCORE.RESTR.CAVITY>
0

>  <SCORE.RESTR.norm>
0

>  <SCORE.SYSTEM>
-2.33664

>  <SCORE.SYSTEM.CONST>
0

>  <SCORE.SYSTEM.DIHEDRAL>
6.25665

>  <SCORE.SYSTEM.POLAR>
-4.52317

>  <SCORE.SYSTEM.REPUL>
0.0373547

>  <SCORE.SYSTEM.VDW>
9.72703

>  <SCORE.SYSTEM.norm>
-0.0753756

>  <SCORE.heavy>
31

>  <SCORE.norm>
-8.17193

$$$$
F2972-0190
  rDOCK(R)          3D
libRbt.so/2013.1/901 2013/11/27
 31 34  0  0  0  0  0  0  0  0999 V2000
  -25.0230   18.7176   -7.4507 C   0  0  0  0  0  0
  -24.4952   19.7965   -8.3209 C   0  0  0  0  0  0
  -24.1546   20.9066   -7.9323 O   0  0  0  0  0  0
  -24.3330   19.4096   -9.7091 C   0  0  0  0  0  0
  -24.1385   18.0796  -10.0822 C   0  0  0  0  0  0
  -23.4612   17.8364  -11.2487 C   0  0  0  0  0  0
  -22.7152   18.9464  -11.8421 C   0  0  0  0  0  0
  -23.7986   19.9751  -11.8474 C   0  0  0  0  0  0
  -24.2171   20.4082  -10.6280 C   0  0  0  0  0  0
  -20.7230   18.9601  -12.7895 C   0  0  0  0  0  0
  -19.8133   18.0527  -12.9238 O   0  0  0  0  0  0
  -20.1788   20.1260  -13.9093 N   0  0  0  0  0  0
  -20.3511   21.6488  -13.9797 C   0  0  0  0  0  0
  -21.1807   22.3898  -12.9266 C   0  0  0  0  0  0
  -20.3289   22.3773  -11.7236 C   0  0  0  0  0  0
  -21.0855   23.3303  -10.9100 N   0  0  0  0  0  0
  -20.3990   24.9608  -10.5126 C   0  0  0  0  0  0
  -21.6362   25.8758   -9.7120 C   0  0  0  0  0  0
  -23.2224   24.7366   -9.6039 N   0  0  0  0  0  0
  -22.9061   23.2049  -10.3548 C   0  0  0  0  0  0
  -19.3117   19.5964  -14.8785 C   0  0  0  0  0  0
  -19.0170   18.3330  -15.0021 N   0  0  0  0  0  0
  -17.9024   18.1882  -15.8045 C   0  0  0  0  0  0
  -17.2595   19.3702  -16.1787 C   0  0  0  0  0  0
  -18.2372   20.6978  -15.6549 S   0  0  0  0  0  0
  -16.0273   19.3562  -16.8627 C   0  0  0  0  0  0
  -15.4754   18.1133  -17.2194 C   0  0  0  0  0  0
  -14.1613   18.0431  -17.9456 C   0  0  0  0  0  0
  -16.1453   16.9306  -16.8883 C   0  0  0  0  0  0
  -17.3709   16.9454  -16.2018 C   0  0  0  0  0  0
  -18.0905   15.6605  -15.9159 C   0  0  0  0  0  0
  1  2  1  0  0  0
  2  3  2  0  0  0
  2  4  1  0  0  0
  4  5  2  0  0  0
  4  9  1  0  0  0
  5  6  1  0  0  0
  6  7  2  0  0  0
  7  8  1  0  0  0
  7 10  1  0  0  0
  8  9  2  0  0  0
 10 11  2  0  0  0
 10 12  1  0  0  0
 12 13  1  0  0  0
 12 21  1  0  0  0
 13 14  1  0  0  0
 14 15  1  0  0  0
 15 16  1  0  0  0
 16 17  1  0  0  0
 16 20  1  0  0  0
 17 18  2  0  0  0
 18 19  1  0  0  0
 19 20  2  0  0  0
 21 22  2  0  0  0
 21 25  1  0  0  0
 22 23  1  0  0  0
 23 24  2  0  0  0
 23 30  1  0  0  0
 24 25  1  0  0  0
 24 26  1  0  0  0
 26 27  2  0  0  0
 27 28  1  0  0  0
 27 29  1  0  0  0
 29 30  2  0  0  0
 30 31  1  0  0  0
M  END
>  <CHROM.0>
-62.40178226,66.76173765,-49.65522761,-62.16764841,167.75322074,-55.85289884
-156.73496832,-157.34544139

>  <CHROM.1>
-25.46229963,-5.39217643,-2.03792521,5.18766968,73.63232264,168.78651635
-111.66126851,-20.46683061,20.07226070,-12.88979597,2.67209638,0.73583375
0.22383567

>  <Name>
F2972-0190

>  <RI>
2.5332e+07

>  <Rbt.Current_Directory>
/home/adria/Escritorio/rDock_CMTR_LC/2pxcA_model/inputs_sah

>  <Rbt.Executable>
rbdock ($Id: //depot/dev/client3/rdock/2013.1/src/exe/rbdock.cxx#4 $)

>  <Rbt.Library>
libRbt.so (2013.1, Build901 2013/11/27)

>  <Rbt.Parameter_File>
/home/adria/Escritorio/rDock_2013.1_src/data/scripts/dock.prm

>  <Rbt.Receptor>
sah_rdock.prm

>  <SCORE>
-255.148

>  <SCORE.INTER>
-16.8095

>  <SCORE.INTER.CONST>
1

>  <SCORE.INTER.POLAR>
-1.08348

>  <SCORE.INTER.REPUL>
0.00614026

>  <SCORE.INTER.ROT>
7

>  <SCORE.INTER.VDW>
-25.5563

>  <SCORE.INTER.norm>
-0.542241

>  <SCORE.INTRA>
-236.798

>  <SCORE.INTRA.DIHEDRAL>
-42.9069

>  <SCORE.INTRA.DIHEDRAL.0>
53.783

>  <SCORE.INTRA.POLAR>
0

>  <SCORE.INTRA.POLAR.0>
0

>  <SCORE.INTRA.REPUL>
0

>  <SCORE.INTRA.REPUL.0>
0

>  <SCORE.INTRA.VDW>
-215.345

>  <SCORE.INTRA.VDW.0>
220.06

>  <SCORE.INTRA.norm>
-7.63865

>  <SCORE.RESTR>
0.563777

>  <SCORE.RESTR.CAVITY>
0.563777

>  <SCORE.RESTR.norm>
0.0181863

>  <SCORE.SYSTEM>
-2.10429

>  <SCORE.SYSTEM.CONST>
0

>  <SCORE.SYSTEM.DIHEDRAL>
3.18091

>  <SCORE.SYSTEM.POLAR>
-3.61227

>  <SCORE.SYSTEM.VDW>
8.58697

>  <SCORE.SYSTEM.norm>
-0.0678803

>  <SCORE.heavy>
31

>  <SCORE.norm>
-8.23058

$$$$
F2972-0190
  rDOCK(R)          3D
libRbt.so/2013.1/901 2013/11/27
 31 34  0  0  0  0  0  0  0  0999 V2000
  -23.9862   23.7062   -9.3197 C   0  0  0  0  0  0
  -23.6234   22.3571   -8.8213 C   0  0  0  0  0  0
  -23.4021   22.0792   -7.6495 O   0  0  0  0  0  0
  -23.6199   21.3303   -9.8453 C   0  0  0  0  0  0
  -23.4708   19.9797   -9.5295 C   0  0  0  0  0  0
  -22.9302   19.1571  -10.4832 C   0  0  0  0  0  0
  -22.2545   19.7884  -11.6172 C   0  0  0  0  0  0
  -23.3300   20.7420  -12.0241 C   0  0  0  0  0  0
  -23.6073   21.7409  -11.1438 C   0  0  0  0  0  0
  -20.3822   19.2215  -12.6369 C   0  0  0  0  0  0
  -19.7113   18.1185  -12.6819 O   0  0  0  0  0  0
  -19.6707   20.0807  -13.9273 N   0  0  0  0  0  0
  -19.5012   21.5810  -14.1993 C   0  0  0  0  0  0
  -20.5393   22.5879  -13.6941 C   0  0  0  0  0  0
  -20.5098   22.4304  -12.2287 C   0  0  0  0  0  0
  -20.7910   23.8172  -11.8541 N   0  0  0  0  0  0
  -19.7496   24.6814  -10.6473 C   0  0  0  0  0  0
  -20.2568   26.3396  -10.6012 C   0  0  0  0  0  0
  -21.7235   26.5337  -11.8804 N   0  0  0  0  0  0
  -22.0319   25.0175  -12.6653 C   0  0  0  0  0  0
  -19.0155   19.2481  -14.8487 C   0  0  0  0  0  0
  -18.9375   17.9507  -14.7543 N   0  0  0  0  0  0
  -17.9601   17.4767  -15.6071 C   0  0  0  0  0  0
  -17.1890   18.4454  -16.2533 C   0  0  0  0  0  0
  -17.8803   19.9936  -15.9100 S   0  0  0  0  0  0
  -16.0622   18.0982  -17.0254 C   0  0  0  0  0  0
  -15.7559   16.7354  -17.1849 C   0  0  0  0  0  0
  -14.5623   16.3121  -17.9946 C   0  0  0  0  0  0
  -16.5585   15.7633  -16.5784 C   0  0  0  0  0  0
  -17.6785   16.1105  -15.8046 C   0  0  0  0  0  0
  -18.5512   15.0401  -15.2186 C   0  0  0  0  0  0
  1  2  1  0  0  0
  2  3  2  0  0  0
  2  4  1  0  0  0
  4  5  2  0  0  0
  4  9  1  0  0  0
  5  6  1  0  0  0
  6  7  2  0  0  0
  7  8  1  0  0  0
  7 10  1  0  0  0
  8  9  2  0  0  0
 10 11  2  0  0  0
 10 12  1  0  0  0
 12 13  1  0  0  0
 12 21  1  0  0  0
 13 14  1  0  0  0
 14 15  1  0  0  0
 15 16  1  0  0  0
 16 17  1  0  0  0
 16 20  1  0  0  0
 17 18  2  0  0  0
 18 19  1  0  0  0
 19 20  2  0  0  0
 21 22  2  0  0  0
 21 25  1  0  0  0
 22 23  1  0  0  0
 23 24  2  0  0  0
 23 30  1  0  0  0
 24 25  1  0  0  0
 24 26  1  0  0  0
 26 27  2  0  0  0
 27 28  1  0  0  0
 27 29  1  0  0  0
 29 30  2  0  0  0
 30 31  1  0  0  0
M  END
>  <CHROM.0>
-178.29661198,56.73917847,-168.50533153,-60.55390709,-30.10497775,-177.84513475
80.29255312,-172.55536277

>  <CHROM.1>
-171.66221306,19.51922220,-31.32648670,-0.19878949,61.13684818,146.63811843
-129.96959555,-20.08213833,20.40937547,-13.14502420,2.45820236,0.77968323
0.07914592

>  <Name>
F2972-0190

>  <RI>
2.5332e+07

>  <Rbt.Current_Directory>
/home/adria/Escritorio/rDock_CMTR_LC/2pxcA_model/inputs_sah

>  <Rbt.Executable>
rbdock ($Id: //depot/dev/client3/rdock/2013.1/src/exe/rbdock.cxx#4 $)

>  <Rbt.Library>
libRbt.so (2013.1, Build901 2013/11/27)

>  <Rbt.Parameter_File>
/home/adria/Escritorio/rDock_2013.1_src/data/scripts/dock.prm

>  <Rbt.Receptor>
sah_rdock.prm

>  <SCORE>
-264.51

>  <SCORE.INTER>
-24.3847

>  <SCORE.INTER.CONST>
1

>  <SCORE.INTER.POLAR>
-3.43169

>  <SCORE.INTER.REPUL>
0.195724

>  <SCORE.INTER.ROT>
7

>  <SCORE.INTER.VDW>
-26.0956

>  <SCORE.INTER.norm>
-0.786603

>  <SCORE.INTRA>
-234.166

>  <SCORE.INTRA.DIHEDRAL>
-43.5992

>  <SCORE.INTRA.DIHEDRAL.0>
53.783

>  <SCORE.INTRA.POLAR>
0

>  <SCORE.INTRA.POLAR.0>
0

>  <SCORE.INTRA.REPUL>
0

>  <SCORE.INTRA.REPUL.0>
0

>  <SCORE.INTRA.VDW>
-212.366

>  <SCORE.INTRA.VDW.0>
220.06

>  <SCORE.INTRA.norm>
-7.55374

>  <SCORE.RESTR>
0

>  <SCORE.RESTR.CAVITY>
0

>  <SCORE.RESTR.norm>
0

>  <SCORE.SYSTEM>
-5.9591

>  <SCORE.SYSTEM.CONST>
0

>  <SCORE.SYSTEM.DIHEDRAL>
4.98044

>  <SCORE.SYSTEM.POLAR>
-3.44599

>  <SCORE.SYSTEM.VDW>
3.26705

>  <SCORE.SYSTEM.norm>
-0.192229

>  <SCORE.heavy>
31

>  <SCORE.norm>
-8.53257

$$$$
F2972-0190
  rDOCK(R)          3D
libRbt.so/2013.1/901 2013/11/27
 31 34  0  0  0  0  0  0  0  0999 V2000
  -25.3875   22.3400   -9.2179 C   0  0  0  0  0  0
  -25.0452   20.9436   -8.8537 C   0  0  0  0  0  0
  -25.0447   20.4968   -7.7137 O   0  0  0  0  0  0
  -24.7710   20.0867   -9.9911 C   0  0  0  0  0  0
  -24.4540   18.7373   -9.8337 C   0  0  0  0  0  0
  -23.6914   18.1433  -10.8053 C   0  0  0  0  0  0
  -22.9976   19.0185  -11.7505 C   0  0  0  0  0  0
  -24.1538   19.8666  -12.1701 C   0  0  0  0  0  0
  -24.6764   20.6798  -11.2135 C   0  0  0  0  0  0
  -20.9589   18.8652  -12.5793 C   0  0  0  0  0  0
  -20.1459   17.8714  -12.7207 O   0  0  0  0  0  0
  -20.2212   20.0271  -13.5869 N   0  0  0  0  0  0
  -20.2231   21.5611  -13.5667 C   0  0  0  0  0  0
  -20.7265   22.3248  -12.3379 C   0  0  0  0  0  0
  -20.6871   23.7389  -12.7522 C   0  0  0  0  0  0
  -21.3281   24.3292  -11.5761 N   0  0  0  0  0  0
  -20.3724   25.3266  -10.4014 C   0  0  0  0  0  0
  -21.4849   26.0121   -9.2606 C   0  0  0  0  0  0
  -23.2758   25.4049   -9.7598 N   0  0  0  0  0  0
  -23.1920   24.4107  -11.1792 C   0  0  0  0  0  0
  -19.3560   19.4621  -14.5376 C   0  0  0  0  0  0
  -19.1516   18.1842  -14.6907 N   0  0  0  0  0  0
  -18.0181   17.9788  -15.4524 C   0  0  0  0  0  0
  -17.2735   19.1191  -15.7617 C   0  0  0  0  0  0
  -18.1703   20.5011  -15.2341 S   0  0  0  0  0  0
  -16.0180   19.0317  -16.3962 C   0  0  0  0  0  0
  -15.5460   17.7616  -16.7712 C   0  0  0  0  0  0
  -14.2113   17.6132  -17.4464 C   0  0  0  0  0  0
  -16.3158   16.6239  -16.5059 C   0  0  0  0  0  0
  -17.5648   16.7115  -15.8686 C   0  0  0  0  0  0
  -18.3898   15.4772  -15.6540 C   0  0  0  0  0  0
  1  2  1  0  0  0
  2  3  2  0  0  0
  2  4  1  0  0  0
  4  5  2  0  0  0
  4  9  1  0  0  0
  5  6  1  0  0  0
  6  7  2  0  0  0
  7  8  1  0  0  0
  7 10  1  0  0  0
  8  9  2  0  0  0
 10 11  2  0  0  0
 10 12  1  0  0  0
 12 13  1  0  0  0
 12 21  1  0  0  0
 13 14  1  0  0  0
 14 15  1  0  0  0
 15 16  1  0  0  0
 16 17  1  0  0  0
 16 20  1  0  0  0
 17 18  2  0  0  0
 18 19  1  0  0  0
 19 20  2  0  0  0
 21 22  2  0  0  0
 21 25  1  0  0  0
 22 23  1  0  0  0
 23 24  2  0  0  0
 23 30  1  0  0  0
 24 25  1  0  0  0
 24 26  1  0  0  0
 26 27  2  0  0  0
 27 28  1  0  0  0
 27 29  1  0  0  0
 29 30  2  0  0  0
 30 31  1  0  0  0
M  END
>  <CHROM.0>
171.56360722,67.18317190,110.44866317,64.70628719,-32.01383044,-56.99287654
-156.73726361,-163.39693567

>  <CHROM.1>
-178.92806479,22.49651677,13.44387324,2.26943196,-174.90550607,173.67167557
109.48180486,-20.64301057,20.30918679,-12.83551266,2.54612320,0.62801084
0.23258450

>  <Name>
F2972-0190

>  <RI>
2.5332e+07

>  <Rbt.Current_Directory>
/home/adria/Escritorio/rDock_CMTR_LC/2pxcA_model/inputs_sah

>  <Rbt.Executable>
rbdock ($Id: //depot/dev/client3/rdock/2013.1/src/exe/rbdock.cxx#4 $)

>  <Rbt.Library>
libRbt.so (2013.1, Build901 2013/11/27)

>  <Rbt.Parameter_File>
/home/adria/Escritorio/rDock_2013.1_src/data/scripts/dock.prm

>  <Rbt.Receptor>
sah_rdock.prm

>  <SCORE>
-259.639

>  <SCORE.INTER>
-18.0941

>  <SCORE.INTER.CONST>
1

>  <SCORE.INTER.POLAR>
-1.92224

>  <SCORE.INTER.REPUL>
0

>  <SCORE.INTER.ROT>
7

>  <SCORE.INTER.VDW>
-23.9585

>  <SCORE.INTER.norm>
-0.583679

>  <SCORE.INTRA>
-234.984

>  <SCORE.INTRA.DIHEDRAL>
-45.7129

>  <SCORE.INTRA.DIHEDRAL.0>
53.783

>  <SCORE.INTRA.POLAR>
0

>  <SCORE.INTRA.POLAR.0>
0

>  <SCORE.INTRA.REPUL>
0

>  <SCORE.INTRA.REPUL.0>
0

>  <SCORE.INTRA.VDW>
-212.127

>  <SCORE.INTRA.VDW.0>
220.06

>  <SCORE.INTRA.norm>
-7.58012

>  <SCORE.RESTR>
0

>  <SCORE.RESTR.CAVITY>
0

>  <SCORE.RESTR.norm>
0

>  <SCORE.SYSTEM>
-6.56099

>  <SCORE.SYSTEM.CONST>
0

>  <SCORE.SYSTEM.DIHEDRAL>
8.89906

>  <SCORE.SYSTEM.POLAR>
-4.28878

>  <SCORE.SYSTEM.VDW>
3.57131

>  <SCORE.SYSTEM.norm>
-0.211645

>  <SCORE.heavy>
31

>  <SCORE.norm>
-8.37545

$$$$
F2972-0190
  rDOCK(R)          3D
libRbt.so/2013.1/901 2013/11/27
 31 34  0  0  0  0  0  0  0  0999 V2000
  -21.6536   25.0548   -8.8288 C   0  0  0  0  0  0
  -20.8250   24.8365  -10.0394 C   0  0  0  0  0  0
  -19.6328   25.1005  -10.1294 O   0  0  0  0  0  0
  -21.5316   24.1947  -11.1312 C   0  0  0  0  0  0
  -22.2878   23.0387  -10.9368 C   0  0  0  0  0  0
  -22.4519   22.1962  -12.0054 C   0  0  0  0  0  0
  -21.5722   22.3870  -13.1589 C   0  0  0  0  0  0
  -21.7798   23.8518  -13.3668 C   0  0  0  0  0  0
  -21.3041   24.6674  -12.3880 C   0  0  0  0  0  0
  -20.5642   20.8893  -14.4267 C   0  0  0  0  0  0
  -19.7041   20.9927  -15.3850 O   0  0  0  0  0  0
  -20.4503   19.2243  -14.0739 N   0  0  0  0  0  0
  -21.4531   18.2229  -13.4864 C   0  0  0  0  0  0
  -21.5484   18.0110  -11.9723 C   0  0  0  0  0  0
  -21.7117   19.3713  -11.4283 C   0  0  0  0  0  0
  -22.7259   19.0806  -10.4136 N   0  0  0  0  0  0
  -22.8741   20.1105   -8.9286 C   0  0  0  0  0  0
  -24.2871   19.5944   -8.0649 C   0  0  0  0  0  0
  -25.0914   18.1342   -9.0876 N   0  0  0  0  0  0
  -24.1689   17.8382  -10.5269 C   0  0  0  0  0  0
  -19.2501   18.6476  -14.5192 C   0  0  0  0  0  0
  -18.2884   19.2964  -15.1128 N   0  0  0  0  0  0
  -17.4238   18.4043  -15.7161 C   0  0  0  0  0  0
  -17.8161   17.0641  -15.6979 C   0  0  0  0  0  0
  -19.2236   16.9338  -14.7007 S   0  0  0  0  0  0
  -17.1062   16.0770  -16.4108 C   0  0  0  0  0  0
  -15.9447   16.4595  -17.1043 C   0  0  0  0  0  0
  -15.1540   15.4464  -17.8839 C   0  0  0  0  0  0
  -15.5242   17.7936  -17.0806 C   0  0  0  0  0  0
  -16.2355   18.7778  -16.3741 C   0  0  0  0  0  0
  -15.7226   20.1866  -16.3213 C   0  0  0  0  0  0
  1  2  1  0  0  0
  2  3  2  0  0  0
  2  4  1  0  0  0
  4  5  2  0  0  0
  4  9  1  0  0  0
  5  6  1  0  0  0
  6  7  2  0  0  0
  7  8  1  0  0  0
  7 10  1  0  0  0
  8  9  2  0  0  0
 10 11  2  0  0  0
 10 12  1  0  0  0
 12 13  1  0  0  0
 12 21  1  0  0  0
 13 14  1  0  0  0
 14 15  1  0  0  0
 15 16  1  0  0  0
 16 17  1  0  0  0
 16 20  1  0  0  0
 17 18  2  0  0  0
 18 19  1  0  0  0
 19 20  2  0  0  0
 21 22  2  0  0  0
 21 25  1  0  0  0
 22 23  1  0  0  0
 23 24  2  0  0  0
 23 30  1  0  0  0
 24 25  1  0  0  0
 24 26  1  0  0  0
 26 27  2  0  0  0
 27 28  1  0  0  0
 27 29  1  0  0  0
 29 30  2  0  0  0
 30 31  1  0  0  0
M  END
>  <CHROM.0>
39.69977321,-70.60256064,71.40083443,64.83796138,-29.79215824,64.39093246
-37.23652007,-160.74124124

>  <CHROM.1>
-49.07094707,-173.87446969,-89.33377290,1.67764425,52.06901266,138.59808697
153.29975307,-20.13273390,19.94307308,-13.16318754,-2.46030472,-0.73686623
-2.93056660

>  <Name>
F2972-0190

>  <RI>
2.5332e+07

>  <Rbt.Current_Directory>
/home/adria/Escritorio/rDock_CMTR_LC/2pxcA_model/inputs_sah

>  <Rbt.Executable>
rbdock ($Id: //depot/dev/client3/rdock/2013.1/src/exe/rbdock.cxx#4 $)

>  <Rbt.Library>
libRbt.so (2013.1, Build901 2013/11/27)

>  <Rbt.Parameter_File>
/home/adria/Escritorio/rDock_2013.1_src/data/scripts/dock.prm

>  <Rbt.Receptor>
sah_rdock.prm

>  <SCORE>
-250.253

>  <SCORE.INTER>
-14.2694

>  <SCORE.INTER.CONST>
1

>  <SCORE.INTER.POLAR>
0

>  <SCORE.INTER.REPUL>
0.00625652

>  <SCORE.INTER.ROT>
7

>  <SCORE.INTER.VDW>
-26.7007

>  <SCORE.INTER.norm>
-0.460303

>  <SCORE.INTRA>
-232.607

>  <SCORE.INTRA.DIHEDRAL>
-35.194

>  <SCORE.INTRA.DIHEDRAL.0>
53.783

>  <SCORE.INTRA.POLAR>
0

>  <SCORE.INTRA.POLAR.0>
0

>  <SCORE.INTRA.REPUL>
0

>  <SCORE.INTRA.REPUL.0>
0

>  <SCORE.INTRA.VDW>
-215.01

>  <SCORE.INTRA.VDW.0>
220.06

>  <SCORE.INTRA.norm>
-7.50346

>  <SCORE.RESTR>
0

>  <SCORE.RESTR.CAVITY>
0

>  <SCORE.RESTR.norm>
0

>  <SCORE.SYSTEM>
-3.37603

>  <SCORE.SYSTEM.CONST>
0

>  <SCORE.SYSTEM.DIHEDRAL>
8.15931

>  <SCORE.SYSTEM.POLAR>
-3.94459

>  <SCORE.SYSTEM.REPUL>
0.158152

>  <SCORE.SYSTEM.VDW>
5.16515

>  <SCORE.SYSTEM.norm>
-0.108904

>  <SCORE.heavy>
31

>  <SCORE.norm>
-8.07267

$$$$
F2972-0190
  rDOCK(R)          3D
libRbt.so/2013.1/901 2013/11/27
 31 34  0  0  0  0  0  0  0  0999 V2000
  -26.7481   21.5978  -11.2861 C   0  0  0  0  0  0
  -26.5295   20.1670  -11.6098 C   0  0  0  0  0  0
  -27.1836   19.5243  -12.4213 O   0  0  0  0  0  0
  -25.3957   19.5735  -10.9277 C   0  0  0  0  0  0
  -24.4766   20.3490  -10.2207 C   0  0  0  0  0  0
  -23.2010   19.8654  -10.0890 C   0  0  0  0  0  0
  -22.8049   18.7561  -10.9571 C   0  0  0  0  0  0
  -23.9489   17.8337  -10.6883 C   0  0  0  0  0  0
  -25.1663   18.2466  -11.1321 C   0  0  0  0  0  0
  -20.9051   18.4085  -12.0233 C   0  0  0  0  0  0
  -20.3833   17.3543  -12.5573 O   0  0  0  0  0  0
  -19.9256   19.6286  -12.7026 N   0  0  0  0  0  0
  -19.5285   21.0265  -12.2108 C   0  0  0  0  0  0
  -20.5901   22.1107  -12.0010 C   0  0  0  0  0  0
  -21.1669   22.3138  -13.3423 C   0  0  0  0  0  0
  -22.1220   23.3726  -13.0114 N   0  0  0  0  0  0
  -23.9059   23.0478  -13.0185 C   0  0  0  0  0  0
  -24.7034   24.4570  -12.3963 C   0  0  0  0  0  0
  -23.3155   25.7637  -11.9590 N   0  0  0  0  0  0
  -21.7481   25.1024  -12.2998 C   0  0  0  0  0  0
  -19.2696   19.2196  -13.8747 C   0  0  0  0  0  0
  -19.1381   17.9817  -14.2601 N   0  0  0  0  0  0
  -18.1719   17.8972  -15.2434 C   0  0  0  0  0  0
  -17.4611   19.0703  -15.5057 C   0  0  0  0  0  0
  -18.2002   20.3532  -14.6110 S   0  0  0  0  0  0
  -16.3478   19.0818  -16.3700 C   0  0  0  0  0  0
  -15.9942   17.8862  -17.0196 C   0  0  0  0  0  0
  -14.8127   17.8436  -17.9478 C   0  0  0  0  0  0
  -16.7378   16.7226  -16.7949 C   0  0  0  0  0  0
  -17.8441   16.7110  -15.9291 C   0  0  0  0  0  0
  -18.6545   15.4601  -15.7581 C   0  0  0  0  0  0
  1  2  1  0  0  0
  2  3  2  0  0  0
  2  4  1  0  0  0
  4  5  2  0  0  0
  4  9  1  0  0  0
  5  6  1  0  0  0
  6  7  2  0  0  0
  7  8  1  0  0  0
  7 10  1  0  0  0
  8  9  2  0  0  0
 10 11  2  0  0  0
 10 12  1  0  0  0
 12 13  1  0  0  0
 12 21  1  0  0  0
 13 14  1  0  0  0
 14 15  1  0  0  0
 15 16  1  0  0  0
 16 17  1  0  0  0
 16 20  1  0  0  0
 17 18  2  0  0  0
 18 19  1  0  0  0
 19 20  2  0  0  0
 21 22  2  0  0  0
 21 25  1  0  0  0
 22 23  1  0  0  0
 23 24  2  0  0  0
 23 30  1  0  0  0
 24 25  1  0  0  0
 24 26  1  0  0  0
 26 27  2  0  0  0
 27 28  1  0  0  0
 27 29  1  0  0  0
 29 30  2  0  0  0
 30 31  1  0  0  0
M  END
>  <CHROM.0>
-173.72164586,65.94003114,-8.64730636,63.70500049,169.18536386,-177.79192469
84.10169975,-164.43565714

>  <CHROM.1>
-10.34904590,162.73182983,-63.00479615,-15.52896229,-62.00613541,-178.72674583
-109.77346742,-21.07202838,19.92855652,-13.28986179,2.74889928,0.51307999
0.03153000

>  <Name>
F2972-0190

>  <RI>
2.5332e+07

>  <Rbt.Current_Directory>
/home/adria/Escritorio/rDock_CMTR_LC/2pxcA_model/inputs_sah

>  <Rbt.Executable>
rbdock ($Id: //depot/dev/client3/rdock/2013.1/src/exe/rbdock.cxx#4 $)

>  <Rbt.Library>
libRbt.so (2013.1, Build901 2013/11/27)

>  <Rbt.Parameter_File>
/home/adria/Escritorio/rDock_2013.1_src/data/scripts/dock.prm

>  <Rbt.Receptor>
sah_rdock.prm

>  <SCORE>
-253.062

>  <SCORE.INTER>
-15.585

>  <SCORE.INTER.CONST>
1

>  <SCORE.INTER.POLAR>
-1.07881

>  <SCORE.INTER.REPUL>
0

>  <SCORE.INTER.ROT>
7

>  <SCORE.INTER.VDW>
-24.3171

>  <SCORE.INTER.norm>
-0.502742

>  <SCORE.INTRA>
-236.005

>  <SCORE.INTRA.DIHEDRAL>
-45.3009

>  <SCORE.INTRA.DIHEDRAL.0>
53.783

>  <SCORE.INTRA.POLAR>
0

>  <SCORE.INTRA.POLAR.0>
0

>  <SCORE.INTRA.REPUL>
0

>  <SCORE.INTRA.REPUL.0>
0

>  <SCORE.INTRA.VDW>
-213.354

>  <SCORE.INTRA.VDW.0>
220.06

>  <SCORE.INTRA.norm>
-7.61306

>  <SCORE.RESTR>
0

>  <SCORE.RESTR.CAVITY>
0

>  <SCORE.RESTR.norm>
0

>  <SCORE.SYSTEM>
-1.4726

>  <SCORE.SYSTEM.CONST>
0

>  <SCORE.SYSTEM.DIHEDRAL>
6.02422

>  <SCORE.SYSTEM.POLAR>
-4.16721

>  <SCORE.SYSTEM.VDW>
9.68379

>  <SCORE.SYSTEM.norm>
-0.0475033

>  <SCORE.heavy>
31

>  <SCORE.norm>
-8.1633

$$$$
