F2582-0081
  rDOCK(R)          3D
libRbt.so/2013.1/901 2013/11/27
 34 37  0  0  0  0  0  0  0  0999 V2000
  -26.6850   20.9999   -7.8512 C   0  0  0  0  0  0
  -26.6945   22.4979   -7.9899 C   0  0  0  0  0  0
  -25.6992   22.7916   -8.9345 O   0  0  0  0  0  0
  -25.6933   24.0095   -9.4549 C   0  0  0  0  0  0
  -26.5244   24.9207   -9.3128 O   0  0  0  0  0  0
  -24.6803   24.0143  -10.3277 N   0  0  0  0  0  0
  -25.1507   24.4800  -12.1686 C   0  0  0  0  0  0
  -23.6004   25.1253  -13.2799 C   0  0  0  0  0  0
  -21.8626   25.2198  -12.5427 N   0  0  0  0  0  0
  -20.8577   24.0771  -12.7725 C   0  0  0  0  0  0
  -21.4638   22.6710  -12.6970 C   0  0  0  0  0  0
  -22.5063   22.0929  -12.1296 N   0  0  0  0  0  0
  -22.3566   20.7382  -12.4286 C   0  0  0  0  0  0
  -21.2528   20.4721  -13.1583 C   0  0  0  0  0  0
  -20.8998   21.7470  -13.5118 N   0  0  0  0  0  0
  -19.7366   22.1593  -14.2484 C   0  0  0  0  0  0
  -18.2477   21.0515  -15.2290 C   0  0  0  0  0  0
  -17.4948   20.8699  -16.3254 C   0  0  0  0  0  0
  -16.9334   19.5102  -16.6268 C   0  0  0  0  0  0
  -15.7078   19.2120  -17.2835 C   0  0  0  0  0  0
  -15.1268   17.9514  -17.1950 C   0  0  0  0  0  0
  -15.8021   16.9576  -16.5069 C   0  0  0  0  0  0
  -17.0065   17.2389  -15.8636 C   0  0  0  0  0  0
  -17.5566   18.5071  -15.9130 C   0  0  0  0  0  0
  -20.7844   19.1448  -13.4732 C   0  0  0  0  0  0
  -19.6873   18.8890  -13.9667 O   0  0  0  0  0  0
  -21.6909   18.1478  -13.0968 N   0  3  0  0  0  0
  -21.3772   16.7501  -13.4019 C   0  0  0  0  0  0
  -22.8834   18.3908  -12.3889 C   0  0  0  0  0  0
  -23.6227   17.4589  -12.0588 O   0  0  0  0  0  0
  -23.1868   19.7192  -12.0694 N   0  3  0  0  0  0
  -24.4044   20.0961  -11.4065 C   0  0  0  0  0  0
  -21.6956   25.2623  -10.7536 C   0  0  0  0  0  0
  -22.9532   24.3431   -9.6281 C   0  0  0  0  0  0
  1  2  1  0  0  0
  2  3  1  0  0  0
  3  4  1  0  0  0
  4  5  2  0  0  0
  4  6  1  0  0  0
  6  7  1  0  0  0
  6 34  1  0  0  0
  7  8  1  0  0  0
  8  9  1  0  0  0
  9 10  1  0  0  0
  9 33  1  0  0  0
 11 10  1  0  0  0
 11 12  1  0  0  0
 11 15  1  0  0  0
 13 12  1  0  0  0
 13 14  1  0  0  0
 13 31  1  0  0  0
 14 15  1  0  0  0
 14 25  1  0  0  0
 15 16  1  0  0  0
 16 17  1  0  0  0
 17 18  2  0  0  0
 18 19  1  0  0  0
 19 20  2  0  0  0
 19 24  1  0  0  0
 20 21  1  0  0  0
 21 22  2  0  0  0
 22 23  1  0  0  0
 23 24  2  0  0  0
 25 26  2  0  0  0
 25 27  1  0  0  0
 27 28  1  0  0  0
 27 29  1  0  0  0
 29 30  2  0  0  0
 29 31  1  0  0  0
 31 32  1  0  0  0
 33 34  1  0  0  0
M  END
>  <CHROM.0>
-178.58159583,-167.59795480,-8.29931274,152.95036565,-32.80255051,-63.53996822
82.43053893,-169.40775117

>  <CHROM.1>
165.71915378,-6.84311664,123.00057645,-40.15437843,-24.76729152,162.53477635
133.36739113,-148.38524060,-21.65110714,21.13745164,-12.72645271,2.67067193
0.64572334,0.04077485

>  <Name>
F2582-0081

>  <RI>
2.73309e+07

>  <Rbt.Current_Directory>
/home/adria/Escritorio/rDock_CMTR_LC/2pxcA_model/inputs_sah

>  <Rbt.Executable>
rbdock ($Id: //depot/dev/client3/rdock/2013.1/src/exe/rbdock.cxx#4 $)

>  <Rbt.Library>
libRbt.so (2013.1, Build901 2013/11/27)

>  <Rbt.Parameter_File>
/home/adria/Escritorio/rDock_2013.1_src/data/scripts/dock.prm

>  <Rbt.Receptor>
sah_rdock.prm

>  <SCORE>
-186.952

>  <SCORE.INTER>
-8.47478

>  <SCORE.INTER.CONST>
1

>  <SCORE.INTER.POLAR>
-0.308957

>  <SCORE.INTER.REPUL>
0

>  <SCORE.INTER.ROT>
8

>  <SCORE.INTER.VDW>
-20.8243

>  <SCORE.INTER.norm>
-0.249258

>  <SCORE.INTRA>
-176.924

>  <SCORE.INTRA.DIHEDRAL>
1.95754

>  <SCORE.INTRA.DIHEDRAL.0>
6.80919

>  <SCORE.INTRA.POLAR>
0

>  <SCORE.INTRA.POLAR.0>
0

>  <SCORE.INTRA.REPUL>
0

>  <SCORE.INTRA.REPUL.0>
0

>  <SCORE.INTRA.VDW>
-177.903

>  <SCORE.INTRA.VDW.0>
176.48

>  <SCORE.INTRA.norm>
-5.20364

>  <SCORE.RESTR>
0.705973

>  <SCORE.RESTR.CAVITY>
0.705973

>  <SCORE.RESTR.norm>
0.0207639

>  <SCORE.SYSTEM>
-2.25946

>  <SCORE.SYSTEM.CONST>
0

>  <SCORE.SYSTEM.DIHEDRAL>
11.5928

>  <SCORE.SYSTEM.POLAR>
-4.17283

>  <SCORE.SYSTEM.VDW>
6.13174

>  <SCORE.SYSTEM.norm>
-0.0664547

>  <SCORE.heavy>
34

>  <SCORE.norm>
-5.49859

$$$$
F2582-0081
  rDOCK(R)          3D
libRbt.so/2013.1/901 2013/11/27
 34 37  0  0  0  0  0  0  0  0999 V2000
  -27.3698   18.9460  -11.5137 C   0  0  0  0  0  0
  -26.7376   20.1269  -12.1986 C   0  0  0  0  0  0
  -25.3609   19.8555  -12.2156 O   0  0  0  0  0  0
  -24.5720   20.7435  -12.8015 C   0  0  0  0  0  0
  -24.8832   21.7825  -13.4055 O   0  0  0  0  0  0
  -23.3490   20.2037  -12.7681 N   0  0  0  0  0  0
  -22.8024   19.4505  -11.0474 C   0  0  0  0  0  0
  -21.3163   18.0973  -11.1721 C   0  0  0  0  0  0
  -20.5480   17.6645  -12.8438 N   0  0  0  0  0  0
  -19.2441   18.3434  -13.2990 C   0  0  0  0  0  0
  -18.5864   17.7016  -14.5261 C   0  0  0  0  0  0
  -18.6018   16.5295  -15.1335 N   0  0  0  0  0  0
  -17.6588   16.6558  -16.1542 C   0  0  0  0  0  0
  -17.0664   17.8682  -16.1857 C   0  0  0  0  0  0
  -17.8849   18.5449  -15.3213 N   0  0  0  0  0  0
  -17.7402   19.8981  -14.8592 C   0  0  0  0  0  0
  -18.9482   21.0774  -13.6120 C   0  0  0  0  0  0
  -19.7957   21.1433  -12.5731 C   0  0  0  0  0  0
  -20.7719   22.2805  -12.4789 C   0  0  0  0  0  0
  -21.2310   23.1099  -13.5388 C   0  0  0  0  0  0
  -22.3787   23.8844  -13.4071 C   0  0  0  0  0  0
  -23.0380   23.8901  -12.1896 C   0  0  0  0  0  0
  -22.5930   23.0837  -11.1429 C   0  0  0  0  0  0
  -21.4793   22.2775  -11.2942 C   0  0  0  0  0  0
  -15.9558   18.2107  -17.0398 C   0  0  0  0  0  0
  -15.2893   19.2397  -16.9417 O   0  0  0  0  0  0
  -15.6610   17.2094  -17.9715 N   0  3  0  0  0  0
  -14.5905   17.4372  -18.9448 C   0  0  0  0  0  0
  -16.2986   15.9548  -18.0111 C   0  0  0  0  0  0
  -15.9656   15.1032  -18.8405 O   0  0  0  0  0  0
  -17.3085   15.7125  -17.0728 N   0  3  0  0  0  0
  -18.0725   14.4959  -17.0562 C   0  0  0  0  0  0
  -21.4835   18.0323  -14.3339 C   0  0  0  0  0  0
  -22.6603   19.5499  -14.4047 C   0  0  0  0  0  0
  1  2  1  0  0  0
  2  3  1  0  0  0
  3  4  1  0  0  0
  4  5  2  0  0  0
  4  6  1  0  0  0
  6  7  1  0  0  0
  6 34  1  0  0  0
  7  8  1  0  0  0
  8  9  1  0  0  0
  9 10  1  0  0  0
  9 33  1  0  0  0
 11 10  1  0  0  0
 11 12  1  0  0  0
 11 15  1  0  0  0
 13 12  1  0  0  0
 13 14  1  0  0  0
 13 31  1  0  0  0
 14 15  1  0  0  0
 14 25  1  0  0  0
 15 16  1  0  0  0
 16 17  1  0  0  0
 17 18  2  0  0  0
 18 19  1  0  0  0
 19 20  2  0  0  0
 19 24  1  0  0  0
 20 21  1  0  0  0
 21 22  2  0  0  0
 22 23  1  0  0  0
 23 24  2  0  0  0
 25 26  2  0  0  0
 25 27  1  0  0  0
 27 28  1  0  0  0
 27 29  1  0  0  0
 29 30  2  0  0  0
 29 31  1  0  0  0
 31 32  1  0  0  0
 33 34  1  0  0  0
M  END
>  <CHROM.0>
-178.32296434,65.57471402,-127.76419072,-63.54831364,167.08732366,60.96337888
86.26984228,-163.95008646

>  <CHROM.1>
178.49636322,-3.51273094,-46.85509232,168.16323381,-22.25075933,-27.34920160
32.57484486,21.24124891,-20.22737565,19.17969300,-14.33483317,2.54392199
0.42857826,0.32145948

>  <Name>
F2582-0081

>  <RI>
2.73309e+07

>  <Rbt.Current_Directory>
/home/adria/Escritorio/rDock_CMTR_LC/2pxcA_model/inputs_sah

>  <Rbt.Executable>
rbdock ($Id: //depot/dev/client3/rdock/2013.1/src/exe/rbdock.cxx#4 $)

>  <Rbt.Library>
libRbt.so (2013.1, Build901 2013/11/27)

>  <Rbt.Parameter_File>
/home/adria/Escritorio/rDock_2013.1_src/data/scripts/dock.prm

>  <Rbt.Receptor>
sah_rdock.prm

>  <SCORE>
-183.265

>  <SCORE.INTER>
-5.30331

>  <SCORE.INTER.CONST>
1

>  <SCORE.INTER.POLAR>
-0.743998

>  <SCORE.INTER.REPUL>
0.120919

>  <SCORE.INTER.ROT>
8

>  <SCORE.INTER.VDW>
-16.7783

>  <SCORE.INTER.norm>
-0.15598

>  <SCORE.INTRA>
-177.393

>  <SCORE.INTRA.DIHEDRAL>
-0.446325

>  <SCORE.INTRA.DIHEDRAL.0>
6.80919

>  <SCORE.INTRA.POLAR>
0

>  <SCORE.INTRA.POLAR.0>
0

>  <SCORE.INTRA.REPUL>
0

>  <SCORE.INTRA.REPUL.0>
0

>  <SCORE.INTRA.VDW>
-177.17

>  <SCORE.INTRA.VDW.0>
176.48

>  <SCORE.INTRA.norm>
-5.21745

>  <SCORE.RESTR>
0.300389

>  <SCORE.RESTR.CAVITY>
0.300389

>  <SCORE.RESTR.norm>
0.00883498

>  <SCORE.SYSTEM>
-0.868286

>  <SCORE.SYSTEM.CONST>
0

>  <SCORE.SYSTEM.DIHEDRAL>
6.29331

>  <SCORE.SYSTEM.POLAR>
-4.09429

>  <SCORE.SYSTEM.VDW>
9.90564

>  <SCORE.SYSTEM.norm>
-0.0255378

>  <SCORE.heavy>
34

>  <SCORE.norm>
-5.39013

$$$$
F2582-0081
  rDOCK(R)          3D
libRbt.so/2013.1/901 2013/11/27
 34 37  0  0  0  0  0  0  0  0999 V2000
  -26.0272   24.0848   -9.7558 C   0  0  0  0  0  0
  -26.9444   22.9058   -9.5776 C   0  0  0  0  0  0
  -26.1840   21.7833   -9.9395 O   0  0  0  0  0  0
  -25.4161   21.2409   -9.0066 C   0  0  0  0  0  0
  -25.4170   21.4451   -7.7821 O   0  0  0  0  0  0
  -24.4949   20.5381   -9.6739 N   0  0  0  0  0  0
  -24.6961   18.5936   -9.6010 C   0  0  0  0  0  0
  -23.7650   17.6097  -11.0910 C   0  0  0  0  0  0
  -22.7776   18.5542  -12.3969 N   0  0  0  0  0  0
  -21.2517   18.7006  -12.2620 C   0  0  0  0  0  0
  -20.4419   17.9095  -13.2958 C   0  0  0  0  0  0
  -19.9417   16.6933  -13.4123 N   0  0  0  0  0  0
  -19.2282   16.7254  -14.6110 C   0  0  0  0  0  0
  -19.2754   17.9252  -15.2275 C   0  0  0  0  0  0
  -20.2640   18.5216  -14.4915 N   0  0  0  0  0  0
  -20.7433   19.8718  -14.6036 C   0  0  0  0  0  0
  -20.4868   21.5452  -13.3627 C   0  0  0  0  0  0
  -20.0431   22.0472  -12.1996 C   0  0  0  0  0  0
  -20.6409   23.3139  -11.6584 C   0  0  0  0  0  0
  -20.1134   24.1434  -10.6307 C   0  0  0  0  0  0
  -20.5539   25.4512  -10.4582 C   0  0  0  0  0  0
  -21.5761   25.9182  -11.2671 C   0  0  0  0  0  0
  -22.1028   25.1110  -12.2745 C   0  0  0  0  0  0
  -21.6278   23.8275  -12.4746 C   0  0  0  0  0  0
  -18.5056   18.2712  -16.3971 C   0  0  0  0  0  0
  -18.3940   19.4094  -16.8495 O   0  0  0  0  0  0
  -17.8306   17.1747  -16.9443 N   0  3  0  0  0  0
  -17.0493   17.3602  -18.1693 C   0  0  0  0  0  0
  -17.8076   15.8917  -16.3650 C   0  0  0  0  0  0
  -17.1631   14.9759  -16.8843 O   0  0  0  0  0  0
  -18.5306   15.7035  -15.1814 N   0  3  0  0  0  0
  -18.6337   14.4252  -14.5336 C   0  0  0  0  0  0
  -23.1169   20.3048  -12.6225 C   0  0  0  0  0  0
  -23.6621   21.3983  -11.1392 C   0  0  0  0  0  0
  1  2  1  0  0  0
  2  3  1  0  0  0
  3  4  1  0  0  0
  4  5  2  0  0  0
  4  6  1  0  0  0
  6  7  1  0  0  0
  6 34  1  0  0  0
  7  8  1  0  0  0
  8  9  1  0  0  0
  9 10  1  0  0  0
  9 33  1  0  0  0
 11 10  1  0  0  0
 11 12  1  0  0  0
 11 15  1  0  0  0
 13 12  1  0  0  0
 13 14  1  0  0  0
 13 31  1  0  0  0
 14 15  1  0  0  0
 14 25  1  0  0  0
 15 16  1  0  0  0
 16 17  1  0  0  0
 17 18  2  0  0  0
 18 19  1  0  0  0
 19 20  2  0  0  0
 19 24  1  0  0  0
 20 21  1  0  0  0
 21 22  2  0  0  0
 22 23  1  0  0  0
 23 24  2  0  0  0
 25 26  2  0  0  0
 25 27  1  0  0  0
 27 28  1  0  0  0
 27 29  1  0  0  0
 29 30  2  0  0  0
 29 31  1  0  0  0
 31 32  1  0  0  0
 33 34  1  0  0  0
M  END
>  <CHROM.0>
176.82997678,-165.72353905,-127.99933205,71.92826845,-31.62770313,173.98859893
-158.20838087,-164.74656638

>  <CHROM.1>
85.20873870,12.66313171,-107.38123438,110.43792376,-87.66711075,48.55502572
-8.10885314,-164.67298392,-21.34719285,19.92427044,-12.83280237,-2.40645996
-0.68604657,-2.97303866

>  <Name>
F2582-0081

>  <RI>
2.73309e+07

>  <Rbt.Current_Directory>
/home/adria/Escritorio/rDock_CMTR_LC/2pxcA_model/inputs_sah

>  <Rbt.Executable>
rbdock ($Id: //depot/dev/client3/rdock/2013.1/src/exe/rbdock.cxx#4 $)

>  <Rbt.Library>
libRbt.so (2013.1, Build901 2013/11/27)

>  <Rbt.Parameter_File>
/home/adria/Escritorio/rDock_2013.1_src/data/scripts/dock.prm

>  <Rbt.Receptor>
sah_rdock.prm

>  <SCORE>
-194.667

>  <SCORE.INTER>
-16.5878

>  <SCORE.INTER.CONST>
1

>  <SCORE.INTER.POLAR>
-1.72429

>  <SCORE.INTER.REPUL>
0.0158285

>  <SCORE.INTER.ROT>
8

>  <SCORE.INTER.VDW>
-24.2044

>  <SCORE.INTER.norm>
-0.487877

>  <SCORE.INTRA>
-172.744

>  <SCORE.INTRA.DIHEDRAL>
5.18313

>  <SCORE.INTRA.DIHEDRAL.0>
6.80919

>  <SCORE.INTRA.POLAR>
0

>  <SCORE.INTRA.POLAR.0>
0

>  <SCORE.INTRA.REPUL>
0

>  <SCORE.INTRA.REPUL.0>
0

>  <SCORE.INTRA.VDW>
-175.336

>  <SCORE.INTRA.VDW.0>
176.48

>  <SCORE.INTRA.norm>
-5.08071

>  <SCORE.RESTR>
0

>  <SCORE.RESTR.CAVITY>
0

>  <SCORE.RESTR.norm>
0

>  <SCORE.SYSTEM>
-5.33483

>  <SCORE.SYSTEM.CONST>
0

>  <SCORE.SYSTEM.DIHEDRAL>
9.89725

>  <SCORE.SYSTEM.POLAR>
-4.18572

>  <SCORE.SYSTEM.VDW>
3.948

>  <SCORE.SYSTEM.norm>
-0.156907

>  <SCORE.heavy>
34

>  <SCORE.norm>
-5.7255

$$$$
F2582-0081
  rDOCK(R)          3D
libRbt.so/2013.1/901 2013/11/27
 34 37  0  0  0  0  0  0  0  0999 V2000
  -26.2184   23.3463   -7.6167 C   0  0  0  0  0  0
  -26.3824   23.6635   -9.0781 C   0  0  0  0  0  0
  -25.1895   23.2448   -9.6871 O   0  0  0  0  0  0
  -25.1388   23.2715  -11.0103 C   0  0  0  0  0  0
  -26.0049   23.6505  -11.8149 O   0  0  0  0  0  0
  -24.0095   22.6319  -11.3321 N   0  0  0  0  0  0
  -22.4913   23.7752  -11.7956 C   0  0  0  0  0  0
  -20.6970   22.8782  -11.6201 C   0  0  0  0  0  0
  -20.5740   21.0731  -11.0734 N   0  0  0  0  0  0
  -20.4325   19.9525  -12.1185 C   0  0  0  0  0  0
  -21.6150   19.8311  -13.0865 C   0  0  0  0  0  0
  -22.8376   20.3183  -13.1909 N   0  0  0  0  0  0
  -23.3745   19.6715  -14.3046 C   0  0  0  0  0  0
  -22.5177   18.8022  -14.8807 C   0  0  0  0  0  0
  -21.3637   19.1565  -14.2344 N   0  0  0  0  0  0
  -20.0718   18.5376  -14.3504 C   0  0  0  0  0  0
  -18.2508   19.2540  -15.1096 C   0  0  0  0  0  0
  -17.5276   20.2959  -15.5492 C   0  0  0  0  0  0
  -16.3777   20.0622  -16.4863 C   0  0  0  0  0  0
  -15.1699   20.8084  -16.5685 C   0  0  0  0  0  0
  -14.0469   20.2997  -17.2124 C   0  0  0  0  0  0
  -14.1437   19.0696  -17.8405 C   0  0  0  0  0  0
  -15.3249   18.3325  -17.7693 C   0  0  0  0  0  0
  -16.4242   18.8204  -17.0862 C   0  0  0  0  0  0
  -22.8688   17.8986  -15.9487 C   0  0  0  0  0  0
  -22.1587   16.9768  -16.3468 O   0  0  0  0  0  0
  -24.1502   18.1352  -16.4582 N   0  3  0  0  0  0
  -24.6265   17.3305  -17.5854 C   0  0  0  0  0  0
  -25.0512   19.0762  -15.9244 C   0  0  0  0  0  0
  -26.1811   19.2105  -16.4032 O   0  0  0  0  0  0
  -24.6197   19.8376  -14.8322 N   0  3  0  0  0  0
  -25.4257   20.8711  -14.2437 C   0  0  0  0  0  0
  -21.9705   20.3473  -10.2051 C   0  0  0  0  0  0
  -23.7673   20.9058  -10.5958 C   0  0  0  0  0  0
  1  2  1  0  0  0
  2  3  1  0  0  0
  3  4  1  0  0  0
  4  5  2  0  0  0
  4  6  1  0  0  0
  6  7  1  0  0  0
  6 34  1  0  0  0
  7  8  1  0  0  0
  8  9  1  0  0  0
  9 10  1  0  0  0
  9 33  1  0  0  0
 11 10  1  0  0  0
 11 12  1  0  0  0
 11 15  1  0  0  0
 13 12  1  0  0  0
 13 14  1  0  0  0
 13 31  1  0  0  0
 14 15  1  0  0  0
 14 25  1  0  0  0
 15 16  1  0  0  0
 16 17  1  0  0  0
 17 18  2  0  0  0
 18 19  1  0  0  0
 19 20  2  0  0  0
 19 24  1  0  0  0
 20 21  1  0  0  0
 21 22  2  0  0  0
 22 23  1  0  0  0
 23 24  2  0  0  0
 25 26  2  0  0  0
 25 27  1  0  0  0
 27 28  1  0  0  0
 27 29  1  0  0  0
 29 30  2  0  0  0
 29 31  1  0  0  0
 31 32  1  0  0  0
 33 34  1  0  0  0
M  END
>  <CHROM.0>
177.42828979,68.30803214,108.34037363,63.29650298,168.62994731,-61.03717959
-157.10010309,-162.44923866

>  <CHROM.1>
172.31969346,1.79584018,-100.88720133,-62.12451504,-10.86675088,-89.98116101
10.82029549,-147.58749870,-21.82494231,20.36389558,-13.85229743,-2.48237828
-0.10916283,-2.20646635

>  <Name>
F2582-0081

>  <RI>
2.73309e+07

>  <Rbt.Current_Directory>
/home/adria/Escritorio/rDock_CMTR_LC/2pxcA_model/inputs_sah

>  <Rbt.Executable>
rbdock ($Id: //depot/dev/client3/rdock/2013.1/src/exe/rbdock.cxx#4 $)

>  <Rbt.Library>
libRbt.so (2013.1, Build901 2013/11/27)

>  <Rbt.Parameter_File>
/home/adria/Escritorio/rDock_2013.1_src/data/scripts/dock.prm

>  <Rbt.Receptor>
sah_rdock.prm

>  <SCORE>
-184.316

>  <SCORE.INTER>
-6.60809

>  <SCORE.INTER.CONST>
1

>  <SCORE.INTER.POLAR>
0

>  <SCORE.INTER.REPUL>
0.147504

>  <SCORE.INTER.ROT>
8

>  <SCORE.INTER.VDW>
-20.7456

>  <SCORE.INTER.norm>
-0.194356

>  <SCORE.INTRA>
-175.924

>  <SCORE.INTRA.DIHEDRAL>
0.627557

>  <SCORE.INTRA.DIHEDRAL.0>
6.80919

>  <SCORE.INTRA.POLAR>
0

>  <SCORE.INTRA.POLAR.0>
0

>  <SCORE.INTRA.REPUL>
0

>  <SCORE.INTRA.REPUL.0>
0

>  <SCORE.INTRA.VDW>
-176.238

>  <SCORE.INTRA.VDW.0>
176.48

>  <SCORE.INTRA.norm>
-5.17424

>  <SCORE.RESTR>
0

>  <SCORE.RESTR.CAVITY>
0

>  <SCORE.RESTR.norm>
0

>  <SCORE.SYSTEM>
-1.78344

>  <SCORE.SYSTEM.CONST>
0

>  <SCORE.SYSTEM.DIHEDRAL>
5.90096

>  <SCORE.SYSTEM.POLAR>
-4.18023

>  <SCORE.SYSTEM.VDW>
9.47888

>  <SCORE.SYSTEM.norm>
-0.0524541

>  <SCORE.heavy>
34

>  <SCORE.norm>
-5.42105

$$$$
F2582-0081
  rDOCK(R)          3D
libRbt.so/2013.1/901 2013/11/27
 34 37  0  0  0  0  0  0  0  0999 V2000
  -24.9892   20.6120   -8.4387 C   0  0  0  0  0  0
  -23.5772   20.2141   -8.1051 C   0  0  0  0  0  0
  -22.8614   20.3365   -9.3058 O   0  0  0  0  0  0
  -23.0558   19.4065  -10.2286 C   0  0  0  0  0  0
  -23.6684   18.3310  -10.1329 O   0  0  0  0  0  0
  -22.2973   19.7762  -11.2660 N   0  0  0  0  0  0
  -21.9893   21.6995  -11.4470 C   0  0  0  0  0  0
  -20.3703   22.1777  -12.5449 C   0  0  0  0  0  0
  -19.3036   20.8258  -13.3240 N   0  0  0  0  0  0
  -19.5151   20.4188  -14.7929 C   0  0  0  0  0  0
  -20.9164   19.8842  -15.1104 C   0  0  0  0  0  0
  -22.1027   19.8675  -14.5315 N   0  0  0  0  0  0
  -22.8950   19.1010  -15.3869 C   0  0  0  0  0  0
  -22.2270   18.6470  -16.4683 C   0  0  0  0  0  0
  -21.0856   19.3960  -16.3629 N   0  0  0  0  0  0
  -19.9141   19.3252  -17.1924 C   0  0  0  0  0  0
  -18.3387   17.9396  -17.2570 C   0  0  0  0  0  0
  -17.0158   17.7154  -17.2939 C   0  0  0  0  0  0
  -16.4934   16.4325  -17.8737 C   0  0  0  0  0  0
  -17.2026   15.5028  -18.6831 C   0  0  0  0  0  0
  -16.5354   14.5491  -19.4444 C   0  0  0  0  0  0
  -15.1563   14.4712  -19.3487 C   0  0  0  0  0  0
  -14.4524   15.3754  -18.5545 C   0  0  0  0  0  0
  -15.1163   16.3539  -17.8368 C   0  0  0  0  0  0
  -22.7661   17.7134  -17.4265 C   0  0  0  0  0  0
  -22.1085   17.1487  -18.2991 O   0  0  0  0  0  0
  -24.1264   17.4561  -17.2248 N   0  3  0  0  0  0
  -24.8272   16.5676  -18.1547 C   0  0  0  0  0  0
  -24.8740   17.9606  -16.1437 C   0  0  0  0  0  0
  -26.0651   17.6662  -16.0077 O   0  0  0  0  0  0
  -24.2133   18.7932  -15.2330 N   0  3  0  0  0  0
  -24.8861   19.4178  -14.1279 C   0  0  0  0  0  0
  -19.4067   19.1627  -12.6497 C   0  0  0  0  0  0
  -21.0530   18.5040  -11.9090 C   0  0  0  0  0  0
  1  2  1  0  0  0
  2  3  1  0  0  0
  3  4  1  0  0  0
  4  5  2  0  0  0
  4  6  1  0  0  0
  6  7  1  0  0  0
  6 34  1  0  0  0
  7  8  1  0  0  0
  8  9  1  0  0  0
  9 10  1  0  0  0
  9 33  1  0  0  0
 11 10  1  0  0  0
 11 12  1  0  0  0
 11 15  1  0  0  0
 13 12  1  0  0  0
 13 14  1  0  0  0
 13 31  1  0  0  0
 14 15  1  0  0  0
 14 25  1  0  0  0
 15 16  1  0  0  0
 16 17  1  0  0  0
 17 18  2  0  0  0
 18 19  1  0  0  0
 19 20  2  0  0  0
 19 24  1  0  0  0
 20 21  1  0  0  0
 21 22  2  0  0  0
 22 23  1  0  0  0
 23 24  2  0  0  0
 25 26  2  0  0  0
 25 27  1  0  0  0
 27 28  1  0  0  0
 27 29  1  0  0  0
 29 30  2  0  0  0
 29 31  1  0  0  0
 31 32  1  0  0  0
 33 34  1  0  0  0
M  END
>  <CHROM.0>
-175.26173372,-71.86268215,-8.12429456,66.09790411,167.95607436,-59.43864633
83.64428044,-163.08002315

>  <CHROM.1>
-74.48430948,-9.73177197,-28.69283743,-60.13368175,14.47956573,79.23246343
-132.12856070,15.36377641,-21.16279574,18.53633864,-14.84639443,-2.22236290
0.04714035,-2.00394731

>  <Name>
F2582-0081

>  <RI>
2.73309e+07

>  <Rbt.Current_Directory>
/home/adria/Escritorio/rDock_CMTR_LC/2pxcA_model/inputs_sah

>  <Rbt.Executable>
rbdock ($Id: //depot/dev/client3/rdock/2013.1/src/exe/rbdock.cxx#4 $)

>  <Rbt.Library>
libRbt.so (2013.1, Build901 2013/11/27)

>  <Rbt.Parameter_File>
/home/adria/Escritorio/rDock_2013.1_src/data/scripts/dock.prm

>  <Rbt.Receptor>
sah_rdock.prm

>  <SCORE>
-186.813

>  <SCORE.INTER>
-7.9727

>  <SCORE.INTER.CONST>
1

>  <SCORE.INTER.POLAR>
0

>  <SCORE.INTER.REPUL>
0

>  <SCORE.INTER.ROT>
8

>  <SCORE.INTER.VDW>
-21.3727

>  <SCORE.INTER.norm>
-0.234491

>  <SCORE.INTRA>
-177.303

>  <SCORE.INTRA.DIHEDRAL>
-1.60472

>  <SCORE.INTRA.DIHEDRAL.0>
6.80919

>  <SCORE.INTRA.POLAR>
0

>  <SCORE.INTRA.POLAR.0>
0

>  <SCORE.INTRA.REPUL>
0

>  <SCORE.INTRA.REPUL.0>
0

>  <SCORE.INTRA.VDW>
-176.501

>  <SCORE.INTRA.VDW.0>
176.48

>  <SCORE.INTRA.norm>
-5.21481

>  <SCORE.RESTR>
0.440762

>  <SCORE.RESTR.CAVITY>
0.440762

>  <SCORE.RESTR.norm>
0.0129636

>  <SCORE.SYSTEM>
-1.9772

>  <SCORE.SYSTEM.CONST>
0

>  <SCORE.SYSTEM.DIHEDRAL>
6.71606

>  <SCORE.SYSTEM.POLAR>
-4.48679

>  <SCORE.SYSTEM.REPUL>
0.0364416

>  <SCORE.SYSTEM.VDW>
9.73764

>  <SCORE.SYSTEM.norm>
-0.0581529

>  <SCORE.heavy>
34

>  <SCORE.norm>
-5.49449

$$$$
F2582-0081
  rDOCK(R)          3D
libRbt.so/2013.1/901 2013/11/27
 34 37  0  0  0  0  0  0  0  0999 V2000
  -16.0011   12.9569  -14.8954 C   0  0  0  0  0  0
  -16.2532   13.4314  -16.3006 C   0  0  0  0  0  0
  -16.4860   14.8110  -16.1925 O   0  0  0  0  0  0
  -16.6745   15.4870  -17.3158 C   0  0  0  0  0  0
  -16.6203   15.0803  -18.4875 O   0  0  0  0  0  0
  -16.7671   16.7681  -16.9442 N   0  0  0  0  0  0
  -15.0811   17.6330  -16.4582 C   0  0  0  0  0  0
  -15.1251   19.6439  -16.5568 C   0  0  0  0  0  0
  -16.7074   20.5474  -17.0590 N   0  0  0  0  0  0
  -17.6528   21.1143  -15.9853 C   0  0  0  0  0  0
  -18.5631   20.0730  -15.3239 C   0  0  0  0  0  0
  -18.6218   18.7577  -15.2263 N   0  0  0  0  0  0
  -19.8091   18.5142  -14.5349 C   0  0  0  0  0  0
  -20.4779   19.6408  -14.2107 C   0  0  0  0  0  0
  -19.5123   20.5693  -14.4942 N   0  0  0  0  0  0
  -19.6302   22.0003  -14.4302 C   0  0  0  0  0  0
  -20.6087   23.2542  -13.0606 C   0  0  0  0  0  0
  -20.5242   24.2339  -12.1469 C   0  0  0  0  0  0
  -21.5779   24.3542  -11.0838 C   0  0  0  0  0  0
  -22.6959   23.4992  -10.8803 C   0  0  0  0  0  0
  -23.3936   23.4934   -9.6772 C   0  0  0  0  0  0
  -23.0227   24.3929   -8.6920 C   0  0  0  0  0  0
  -21.9309   25.2383   -8.8837 C   0  0  0  0  0  0
  -21.2092   25.2066  -10.0633 C   0  0  0  0  0  0
  -21.7982   19.6664  -13.6308 C   0  0  0  0  0  0
  -22.4901   20.6762  -13.5109 O   0  0  0  0  0  0
  -22.2540   18.3947  -13.2670 N   0  3  0  0  0  0
  -23.5589   18.2673  -12.6141 C   0  0  0  0  0  0
  -21.5575   17.2002  -13.5319 C   0  0  0  0  0  0
  -22.0341   16.1072  -13.2124 O   0  0  0  0  0  0
  -20.3191   17.3028  -14.1760 N   0  3  0  0  0  0
  -19.4890   16.1607  -14.4416 C   0  0  0  0  0  0
  -17.9666   19.6294  -17.9549 C   0  0  0  0  0  0
  -18.2283   17.7528  -17.6339 C   0  0  0  0  0  0
  1  2  1  0  0  0
  2  3  1  0  0  0
  3  4  1  0  0  0
  4  5  2  0  0  0
  4  6  1  0  0  0
  6  7  1  0  0  0
  6 34  1  0  0  0
  7  8  1  0  0  0
  8  9  1  0  0  0
  9 10  1  0  0  0
  9 33  1  0  0  0
 11 10  1  0  0  0
 11 12  1  0  0  0
 11 15  1  0  0  0
 13 12  1  0  0  0
 13 14  1  0  0  0
 13 31  1  0  0  0
 14 15  1  0  0  0
 14 25  1  0  0  0
 15 16  1  0  0  0
 16 17  1  0  0  0
 17 18  2  0  0  0
 18 19  1  0  0  0
 19 20  2  0  0  0
 19 24  1  0  0  0
 20 21  1  0  0  0
 21 22  2  0  0  0
 22 23  1  0  0  0
 23 24  2  0  0  0
 25 26  2  0  0  0
 25 27  1  0  0  0
 27 28  1  0  0  0
 27 29  1  0  0  0
 29 30  2  0  0  0
 29 31  1  0  0  0
 31 32  1  0  0  0
 33 34  1  0  0  0
M  END
>  <CHROM.0>
-174.49119579,-69.27718594,111.63274660,-61.74663995,-30.36045395,62.69029575
-37.17067615,-160.41755651

>  <CHROM.1>
176.85964592,-3.36231676,75.23678618,-78.82789064,15.76532758,-165.26569997
118.58991396,2.04824184,-19.49630488,19.33034777,-14.27795208,0.90201164
-0.67025345,-2.94743363

>  <Name>
F2582-0081

>  <RI>
2.73309e+07

>  <Rbt.Current_Directory>
/home/adria/Escritorio/rDock_CMTR_LC/2pxcA_model/inputs_sah

>  <Rbt.Executable>
rbdock ($Id: //depot/dev/client3/rdock/2013.1/src/exe/rbdock.cxx#4 $)

>  <Rbt.Library>
libRbt.so (2013.1, Build901 2013/11/27)

>  <Rbt.Parameter_File>
/home/adria/Escritorio/rDock_2013.1_src/data/scripts/dock.prm

>  <Rbt.Receptor>
sah_rdock.prm

>  <SCORE>
-191.465

>  <SCORE.INTER>
-8.19449

>  <SCORE.INTER.CONST>
1

>  <SCORE.INTER.POLAR>
-0.848528

>  <SCORE.INTER.REPUL>
0

>  <SCORE.INTER.ROT>
8

>  <SCORE.INTER.VDW>
-18.7095

>  <SCORE.INTER.norm>
-0.241014

>  <SCORE.INTRA>
-176.567

>  <SCORE.INTRA.DIHEDRAL>
-2.76745

>  <SCORE.INTRA.DIHEDRAL.0>
6.80919

>  <SCORE.INTRA.POLAR>
0

>  <SCORE.INTRA.POLAR.0>
0

>  <SCORE.INTRA.REPUL>
0

>  <SCORE.INTRA.REPUL.0>
0

>  <SCORE.INTRA.VDW>
-175.183

>  <SCORE.INTRA.VDW.0>
176.48

>  <SCORE.INTRA.norm>
-5.19315

>  <SCORE.RESTR>
0

>  <SCORE.RESTR.CAVITY>
0

>  <SCORE.RESTR.norm>
0

>  <SCORE.SYSTEM>
-6.7029

>  <SCORE.SYSTEM.CONST>
0

>  <SCORE.SYSTEM.DIHEDRAL>
9.23951

>  <SCORE.SYSTEM.POLAR>
-4.54377

>  <SCORE.SYSTEM.REPUL>
0.0312213

>  <SCORE.SYSTEM.VDW>
3.97004

>  <SCORE.SYSTEM.norm>
-0.197144

>  <SCORE.heavy>
34

>  <SCORE.norm>
-5.63131

$$$$
F2582-0081
  rDOCK(R)          3D
libRbt.so/2013.1/901 2013/11/27
 34 37  0  0  0  0  0  0  0  0999 V2000
  -23.8473   23.8068  -13.3582 C   0  0  0  0  0  0
  -22.9949   22.7168  -12.7678 C   0  0  0  0  0  0
  -21.7795   23.3333  -12.4332 O   0  0  0  0  0  0
  -20.9173   22.6304  -11.7144 C   0  0  0  0  0  0
  -20.1574   23.0182  -10.8126 O   0  0  0  0  0  0
  -20.8945   21.4183  -12.2786 N   0  0  0  0  0  0
  -19.2978   21.0033  -13.3298 C   0  0  0  0  0  0
  -18.9709   19.0339  -13.5941 C   0  0  0  0  0  0
  -20.1662   17.7565  -12.8785 N   0  0  0  0  0  0
  -21.2697   17.1454  -13.7600 C   0  0  0  0  0  0
  -22.3378   18.1416  -14.2256 C   0  0  0  0  0  0
  -23.3368   18.8157  -13.6866 N   0  0  0  0  0  0
  -23.9412   19.4617  -14.7657 C   0  0  0  0  0  0
  -23.3431   19.1995  -15.9469 C   0  0  0  0  0  0
  -22.2009   18.5944  -15.4953 N   0  0  0  0  0  0
  -21.1562   18.0005  -16.2837 C   0  0  0  0  0  0
  -19.1017   18.4130  -16.4056 C   0  0  0  0  0  0
  -18.0802   18.9296  -17.1067 C   0  0  0  0  0  0
  -16.6829   18.4386  -16.8590 C   0  0  0  0  0  0
  -16.2967   17.2465  -16.1866 C   0  0  0  0  0  0
  -15.0164   16.7206  -16.3229 C   0  0  0  0  0  0
  -14.0896   17.4202  -17.0770 C   0  0  0  0  0  0
  -14.4574   18.5923  -17.7364 C   0  0  0  0  0  0
  -15.7457   19.0859  -17.6379 C   0  0  0  0  0  0
  -23.8544   19.6164  -17.2295 C   0  0  0  0  0  0
  -23.4277   19.2233  -18.3139 O   0  0  0  0  0  0
  -24.9486   20.4815  -17.1204 N   0  3  0  0  0  0
  -25.5428   21.0331  -18.3402 C   0  0  0  0  0  0
  -25.5627   20.8287  -15.9020 C   0  0  0  0  0  0
  -26.5476   21.5726  -15.8809 O   0  0  0  0  0  0
  -25.0211   20.2916  -14.7285 N   0  3  0  0  0  0
  -25.5218   20.6237  -13.4235 C   0  0  0  0  0  0
  -21.2519   18.2607  -11.5377 C   0  0  0  0  0  0
  -21.9081   20.0638  -11.4310 C   0  0  0  0  0  0
  1  2  1  0  0  0
  2  3  1  0  0  0
  3  4  1  0  0  0
  4  5  2  0  0  0
  4  6  1  0  0  0
  6  7  1  0  0  0
  6 34  1  0  0  0
  7  8  1  0  0  0
  8  9  1  0  0  0
  9 10  1  0  0  0
  9 33  1  0  0  0
 11 10  1  0  0  0
 11 12  1  0  0  0
 11 15  1  0  0  0
 13 12  1  0  0  0
 13 14  1  0  0  0
 13 31  1  0  0  0
 14 15  1  0  0  0
 14 25  1  0  0  0
 15 16  1  0  0  0
 16 17  1  0  0  0
 17 18  2  0  0  0
 18 19  1  0  0  0
 19 20  2  0  0  0
 19 24  1  0  0  0
 20 21  1  0  0  0
 21 22  2  0  0  0
 22 23  1  0  0  0
 23 24  2  0  0  0
 25 26  2  0  0  0
 25 27  1  0  0  0
 27 28  1  0  0  0
 27 29  1  0  0  0
 29 30  2  0  0  0
 29 31  1  0  0  0
 31 32  1  0  0  0
 33 34  1  0  0  0
M  END
>  <CHROM.0>
-59.63594604,-71.74795957,-9.53120969,-59.13661980,168.09509506,178.86388732
-157.96821305,-164.58996425

>  <CHROM.1>
170.42962679,-142.96384521,105.91224710,-65.67142468,-71.13486127,-83.25991345
-107.33272783,16.50672070,-21.27397548,19.80013090,-14.85112443,-2.79750799
0.23381534,-2.04341793

>  <Name>
F2582-0081

>  <RI>
2.73309e+07

>  <Rbt.Current_Directory>
/home/adria/Escritorio/rDock_CMTR_LC/2pxcA_model/inputs_sah

>  <Rbt.Executable>
rbdock ($Id: //depot/dev/client3/rdock/2013.1/src/exe/rbdock.cxx#4 $)

>  <Rbt.Library>
libRbt.so (2013.1, Build901 2013/11/27)

>  <Rbt.Parameter_File>
/home/adria/Escritorio/rDock_2013.1_src/data/scripts/dock.prm

>  <Rbt.Receptor>
sah_rdock.prm

>  <SCORE>
-186.679

>  <SCORE.INTER>
-13.8854

>  <SCORE.INTER.CONST>
1

>  <SCORE.INTER.POLAR>
-0.824621

>  <SCORE.INTER.REPUL>
0.209669

>  <SCORE.INTER.ROT>
8

>  <SCORE.INTER.VDW>
-25.53

>  <SCORE.INTER.norm>
-0.408393

>  <SCORE.INTRA>
-170.372

>  <SCORE.INTRA.DIHEDRAL>
9.90363

>  <SCORE.INTRA.DIHEDRAL.0>
6.80919

>  <SCORE.INTRA.POLAR>
0

>  <SCORE.INTRA.POLAR.0>
0

>  <SCORE.INTRA.REPUL>
0

>  <SCORE.INTRA.REPUL.0>
0

>  <SCORE.INTRA.VDW>
-175.324

>  <SCORE.INTRA.VDW.0>
176.48

>  <SCORE.INTRA.norm>
-5.01096

>  <SCORE.RESTR>
0

>  <SCORE.RESTR.CAVITY>
0

>  <SCORE.RESTR.norm>
0

>  <SCORE.SYSTEM>
-2.4212

>  <SCORE.SYSTEM.CONST>
0

>  <SCORE.SYSTEM.DIHEDRAL>
6.13448

>  <SCORE.SYSTEM.POLAR>
-4.52184

>  <SCORE.SYSTEM.REPUL>
0.0362234

>  <SCORE.SYSTEM.VDW>
9.70468

>  <SCORE.SYSTEM.norm>
-0.0712118

>  <SCORE.heavy>
34

>  <SCORE.norm>
-5.49056

$$$$
F2582-0081
  rDOCK(R)          3D
libRbt.so/2013.1/901 2013/11/27
 34 37  0  0  0  0  0  0  0  0999 V2000
  -14.8710   16.5505  -17.7945 C   0  0  0  0  0  0
  -14.6955   17.4455  -16.5981 C   0  0  0  0  0  0
  -15.9949   17.7909  -16.1964 O   0  0  0  0  0  0
  -16.6041   18.7561  -16.8684 C   0  0  0  0  0  0
  -16.1563   19.4749  -17.7761 O   0  0  0  0  0  0
  -17.7751   18.9322  -16.2473 N   0  0  0  0  0  0
  -18.8164   17.3076  -15.9264 C   0  0  0  0  0  0
  -20.1842   17.4788  -14.4585 C   0  0  0  0  0  0
  -20.4019   19.1124  -13.5331 N   0  0  0  0  0  0
  -21.5087   20.0983  -13.9466 C   0  0  0  0  0  0
  -21.8140   21.1851  -12.9093 C   0  0  0  0  0  0
  -21.5099   22.4553  -12.7165 N   0  0  0  0  0  0
  -22.0807   22.7646  -11.4814 C   0  0  0  0  0  0
  -22.7209   21.7208  -10.9136 C   0  0  0  0  0  0
  -22.7427   20.8597  -11.9780 N   0  0  0  0  0  0
  -23.2334   19.5091  -11.9995 C   0  0  0  0  0  0
  -24.1024   18.3704  -13.5338 C   0  0  0  0  0  0
  -24.0073   17.3326  -14.3798 C   0  0  0  0  0  0
  -24.7936   17.3398  -15.6591 C   0  0  0  0  0  0
  -25.6172   18.3869  -16.1566 C   0  0  0  0  0  0
  -26.0061   18.4304  -17.4912 C   0  0  0  0  0  0
  -25.6329   17.3893  -18.3243 C   0  0  0  0  0  0
  -24.8293   16.3559  -17.8448 C   0  0  0  0  0  0
  -24.4039   16.3418  -16.5287 C   0  0  0  0  0  0
  -23.2649   21.7274   -9.5778 C   0  0  0  0  0  0
  -23.6748   20.7310   -8.9846 O   0  0  0  0  0  0
  -23.2227   22.9929   -8.9827 N   0  3  0  0  0  0
  -23.7903   23.1679   -7.6439 C   0  0  0  0  0  0
  -22.6189   24.1217   -9.5688 C   0  0  0  0  0  0
  -22.5881   25.2022   -8.9726 O   0  0  0  0  0  0
  -22.0514   23.9656  -10.8386 N   0  3  0  0  0  0
  -21.4645   25.0589  -11.5627 C   0  0  0  0  0  0
  -19.0582   20.3054  -13.5798 C   0  0  0  0  0  0
  -17.9262   20.4490  -15.1261 C   0  0  0  0  0  0
  1  2  1  0  0  0
  2  3  1  0  0  0
  3  4  1  0  0  0
  4  5  2  0  0  0
  4  6  1  0  0  0
  6  7  1  0  0  0
  6 34  1  0  0  0
  7  8  1  0  0  0
  8  9  1  0  0  0
  9 10  1  0  0  0
  9 33  1  0  0  0
 11 10  1  0  0  0
 11 12  1  0  0  0
 11 15  1  0  0  0
 13 12  1  0  0  0
 13 14  1  0  0  0
 13 31  1  0  0  0
 14 15  1  0  0  0
 14 25  1  0  0  0
 15 16  1  0  0  0
 16 17  1  0  0  0
 17 18  2  0  0  0
 18 19  1  0  0  0
 19 20  2  0  0  0
 19 24  1  0  0  0
 20 21  1  0  0  0
 21 22  2  0  0  0
 22 23  1  0  0  0
 23 24  2  0  0  0
 25 26  2  0  0  0
 25 27  1  0  0  0
 27 28  1  0  0  0
 27 29  1  0  0  0
 29 30  2  0  0  0
 29 31  1  0  0  0
 31 32  1  0  0  0
 33 34  1  0  0  0
M  END
>  <CHROM.0>
176.82591069,-72.48191346,108.84896431,64.34166037,168.62974464,59.61832932
-38.84812995,-155.16104821

>  <CHROM.1>
-80.18350675,-4.79642050,-50.12717007,164.64855006,99.90006470,-54.78439135
112.15465503,3.79469748,-21.37199402,20.01359250,-13.67488180,-1.06015482
0.12828392,0.85453697

>  <Name>
F2582-0081

>  <RI>
2.73309e+07

>  <Rbt.Current_Directory>
/home/adria/Escritorio/rDock_CMTR_LC/2pxcA_model/inputs_sah

>  <Rbt.Executable>
rbdock ($Id: //depot/dev/client3/rdock/2013.1/src/exe/rbdock.cxx#4 $)

>  <Rbt.Library>
libRbt.so (2013.1, Build901 2013/11/27)

>  <Rbt.Parameter_File>
/home/adria/Escritorio/rDock_2013.1_src/data/scripts/dock.prm

>  <Rbt.Receptor>
sah_rdock.prm

>  <SCORE>
-181.906

>  <SCORE.INTER>
-3.04638

>  <SCORE.INTER.CONST>
1

>  <SCORE.INTER.POLAR>
-0.544676

>  <SCORE.INTER.REPUL>
0.812465

>  <SCORE.INTER.ROT>
8

>  <SCORE.INTER.VDW>
-18.6568

>  <SCORE.INTER.norm>
-0.0895994

>  <SCORE.INTRA>
-176.959

>  <SCORE.INTRA.DIHEDRAL>
-0.851807

>  <SCORE.INTRA.DIHEDRAL.0>
6.80919

>  <SCORE.INTRA.POLAR>
0

>  <SCORE.INTRA.POLAR.0>
0

>  <SCORE.INTRA.REPUL>
0

>  <SCORE.INTRA.REPUL.0>
0

>  <SCORE.INTRA.VDW>
-176.533

>  <SCORE.INTRA.VDW.0>
176.48

>  <SCORE.INTRA.norm>
-5.20468

>  <SCORE.RESTR>
0.0101671

>  <SCORE.RESTR.CAVITY>
0.0101671

>  <SCORE.RESTR.norm>
0.000299033

>  <SCORE.SYSTEM>
-1.91008

>  <SCORE.SYSTEM.CONST>
0

>  <SCORE.SYSTEM.DIHEDRAL>
6.64866

>  <SCORE.SYSTEM.POLAR>
-4.40195

>  <SCORE.SYSTEM.REPUL>
0.0375972

>  <SCORE.SYSTEM.VDW>
9.54422

>  <SCORE.SYSTEM.norm>
-0.0561789

>  <SCORE.heavy>
34

>  <SCORE.norm>
-5.35016

$$$$
F2582-0081
  rDOCK(R)          3D
libRbt.so/2013.1/901 2013/11/27
 34 37  0  0  0  0  0  0  0  0999 V2000
  -23.5715   23.3309   -8.1612 C   0  0  0  0  0  0
  -24.5870   23.3545   -9.2710 C   0  0  0  0  0  0
  -24.0553   22.5382  -10.2810 O   0  0  0  0  0  0
  -24.1048   21.2279  -10.0946 C   0  0  0  0  0  0
  -24.6141   20.5937   -9.1568 O   0  0  0  0  0  0
  -23.3276   20.7070  -11.0500 N   0  0  0  0  0  0
  -21.8219   19.6274  -10.4220 C   0  0  0  0  0  0
  -21.0951   18.3452  -11.7941 C   0  0  0  0  0  0
  -21.8411   18.2690  -13.5291 N   0  0  0  0  0  0
  -21.1897   19.0413  -14.6897 C   0  0  0  0  0  0
  -19.9083   18.4039  -15.2393 C   0  0  0  0  0  0
  -19.4395   17.1863  -15.4409 N   0  0  0  0  0  0
  -18.1340   17.3877  -15.8904 C   0  0  0  0  0  0
  -17.7913   18.6910  -15.9661 C   0  0  0  0  0  0
  -19.0257   19.2615  -15.8063 N   0  0  0  0  0  0
  -19.3361   20.6618  -15.7152 C   0  0  0  0  0  0
  -19.8798   21.8613  -14.0807 C   0  0  0  0  0  0
  -20.1401   21.9517  -12.7670 C   0  0  0  0  0  0
  -21.0204   23.0558  -12.2561 C   0  0  0  0  0  0
  -20.8418   23.8189  -11.0695 C   0  0  0  0  0  0
  -21.5026   25.0279  -10.8798 C   0  0  0  0  0  0
  -22.4019   25.4500  -11.8444 C   0  0  0  0  0  0
  -22.5872   24.7064  -13.0091 C   0  0  0  0  0  0
  -21.8912   23.5292  -13.2161 C   0  0  0  0  0  0
  -16.4613   19.1684  -16.2553 C   0  0  0  0  0  0
  -16.0968   20.3372  -16.1377 O   0  0  0  0  0  0
  -15.5876   18.1419  -16.6299 N   0  3  0  0  0  0
  -14.2135   18.4806  -17.0071 C   0  0  0  0  0  0
  -15.9257   16.7752  -16.6238 C   0  0  0  0  0  0
  -15.0940   15.9177  -16.9348 O   0  0  0  0  0  0
  -17.2285   16.4329  -16.2436 N   0  3  0  0  0  0
  -17.7077   15.0786  -16.2598 C   0  0  0  0  0  0
  -23.4985   18.9199  -13.7747 C   0  0  0  0  0  0
  -24.1335   20.4064  -12.7354 C   0  0  0  0  0  0
  1  2  1  0  0  0
  2  3  1  0  0  0
  3  4  1  0  0  0
  4  5  2  0  0  0
  4  6  1  0  0  0
  6  7  1  0  0  0
  6 34  1  0  0  0
  7  8  1  0  0  0
  8  9  1  0  0  0
  9 10  1  0  0  0
  9 33  1  0  0  0
 11 10  1  0  0  0
 11 12  1  0  0  0
 11 15  1  0  0  0
 13 12  1  0  0  0
 13 14  1  0  0  0
 13 31  1  0  0  0
 14 15  1  0  0  0
 14 25  1  0  0  0
 15 16  1  0  0  0
 16 17  1  0  0  0
 17 18  2  0  0  0
 18 19  1  0  0  0
 19 20  2  0  0  0
 19 24  1  0  0  0
 20 21  1  0  0  0
 21 22  2  0  0  0
 22 23  1  0  0  0
 23 24  2  0  0  0
 25 26  2  0  0  0
 25 27  1  0  0  0
 27 28  1  0  0  0
 27 29  1  0  0  0
 29 30  2  0  0  0
 29 31  1  0  0  0
 31 32  1  0  0  0
 33 34  1  0  0  0
M  END
>  <CHROM.0>
176.79130676,-167.37753782,-164.05494099,64.89775137,32.95921638,-178.44850371
-156.53863013,-172.00072244

>  <CHROM.1>
75.34945718,3.27732989,121.04414026,75.69580559,35.38024659,49.98438736,-0.53065213
-139.83065913,-20.29003483,20.17511619,-13.52917086,-2.48566384,-0.61517141
-2.93868287

>  <Name>
F2582-0081

>  <RI>
2.73309e+07

>  <Rbt.Current_Directory>
/home/adria/Escritorio/rDock_CMTR_LC/2pxcA_model/inputs_sah

>  <Rbt.Executable>
rbdock ($Id: //depot/dev/client3/rdock/2013.1/src/exe/rbdock.cxx#4 $)

>  <Rbt.Library>
libRbt.so (2013.1, Build901 2013/11/27)

>  <Rbt.Parameter_File>
/home/adria/Escritorio/rDock_2013.1_src/data/scripts/dock.prm

>  <Rbt.Receptor>
sah_rdock.prm

>  <SCORE>
-181.935

>  <SCORE.INTER>
-11.0515

>  <SCORE.INTER.CONST>
1

>  <SCORE.INTER.POLAR>
0

>  <SCORE.INTER.REPUL>
0.22091

>  <SCORE.INTER.ROT>
8

>  <SCORE.INTER.VDW>
-25.5561

>  <SCORE.INTER.norm>
-0.325044

>  <SCORE.INTRA>
-176.95

>  <SCORE.INTRA.DIHEDRAL>
3.62064

>  <SCORE.INTRA.DIHEDRAL.0>
6.80919

>  <SCORE.INTRA.POLAR>
0

>  <SCORE.INTRA.POLAR.0>
0

>  <SCORE.INTRA.REPUL>
0

>  <SCORE.INTRA.REPUL.0>
0

>  <SCORE.INTRA.VDW>
-178.76

>  <SCORE.INTRA.VDW.0>
176.48

>  <SCORE.INTRA.norm>
-5.20441

>  <SCORE.RESTR>
0

>  <SCORE.RESTR.CAVITY>
0

>  <SCORE.RESTR.norm>
0

>  <SCORE.SYSTEM>
6.06618

>  <SCORE.SYSTEM.CONST>
0

>  <SCORE.SYSTEM.DIHEDRAL>
5.85695

>  <SCORE.SYSTEM.POLAR>
-3.34138

>  <SCORE.SYSTEM.VDW>
14.4984

>  <SCORE.SYSTEM.norm>
0.178417

>  <SCORE.heavy>
34

>  <SCORE.norm>
-5.35103

$$$$
F2582-0081
  rDOCK(R)          3D
libRbt.so/2013.1/901 2013/11/27
 34 37  0  0  0  0  0  0  0  0999 V2000
  -15.8289   12.9303  -16.2024 C   0  0  0  0  0  0
  -17.2487   13.3785  -16.4185 C   0  0  0  0  0  0
  -17.2229   14.7755  -16.2889 O   0  0  0  0  0  0
  -16.8162   15.4772  -17.3359 C   0  0  0  0  0  0
  -16.3221   15.0719  -18.4003 O   0  0  0  0  0  0
  -16.8804   16.7556  -16.9492 N   0  0  0  0  0  0
  -15.1789   17.5705  -16.4319 C   0  0  0  0  0  0
  -15.1699   19.5829  -16.5054 C   0  0  0  0  0  0
  -16.7221   20.5332  -17.0152 N   0  0  0  0  0  0
  -17.6659   21.1110  -15.9459 C   0  0  0  0  0  0
  -18.5866   20.0792  -15.2841 C   0  0  0  0  0  0
  -18.6492   18.7652  -15.1720 N   0  0  0  0  0  0
  -19.8456   18.5320  -14.4930 C   0  0  0  0  0  0
  -20.5163   19.6636  -14.1905 C   0  0  0  0  0  0
  -19.5453   20.5869  -14.4724 N   0  0  0  0  0  0
  -19.6612   22.0187  -14.4266 C   0  0  0  0  0  0
  -20.5450   23.2970  -13.0158 C   0  0  0  0  0  0
  -20.3890   24.2401  -12.0734 C   0  0  0  0  0  0
  -21.4292   24.4028  -11.0027 C   0  0  0  0  0  0
  -22.5976   23.6150  -10.8119 C   0  0  0  0  0  0
  -23.2898   23.6266   -9.6057 C   0  0  0  0  0  0
  -22.8599   24.4796   -8.6033 C   0  0  0  0  0  0
  -21.7181   25.2592   -8.7824 C   0  0  0  0  0  0
  -21.0042   25.2082   -9.9660 C   0  0  0  0  0  0
  -21.8439   19.6984  -13.6278 C   0  0  0  0  0  0
  -22.5352   20.7108  -13.5285 O   0  0  0  0  0  0
  -22.3068   18.4318  -13.2551 N   0  3  0  0  0  0
  -23.6202   18.3144  -12.6175 C   0  0  0  0  0  0
  -21.6093   17.2330  -13.4972 C   0  0  0  0  0  0
  -22.0922   16.1447  -13.1711 O   0  0  0  0  0  0
  -20.3626   17.3258  -14.1265 N   0  3  0  0  0  0
  -19.5315   16.1791  -14.3682 C   0  0  0  0  0  0
  -17.9933   19.6592  -17.9378 C   0  0  0  0  0  0
  -18.3071   17.7862  -17.6439 C   0  0  0  0  0  0
  1  2  1  0  0  0
  2  3  1  0  0  0
  3  4  1  0  0  0
  4  5  2  0  0  0
  4  6  1  0  0  0
  6  7  1  0  0  0
  6 34  1  0  0  0
  7  8  1  0  0  0
  8  9  1  0  0  0
  9 10  1  0  0  0
  9 33  1  0  0  0
 11 10  1  0  0  0
 11 12  1  0  0  0
 11 15  1  0  0  0
 13 12  1  0  0  0
 13 14  1  0  0  0
 13 31  1  0  0  0
 14 15  1  0  0  0
 14 25  1  0  0  0
 15 16  1  0  0  0
 16 17  1  0  0  0
 17 18  2  0  0  0
 18 19  1  0  0  0
 19 20  2  0  0  0
 19 24  1  0  0  0
 20 21  1  0  0  0
 21 22  2  0  0  0
 22 23  1  0  0  0
 23 24  2  0  0  0
 25 26  2  0  0  0
 25 27  1  0  0  0
 27 28  1  0  0  0
 27 29  1  0  0  0
 29 30  2  0  0  0
 29 31  1  0  0  0
 31 32  1  0  0  0
 33 34  1  0  0  0
M  END
>  <CHROM.0>
-176.12474063,-72.32765717,-129.82088377,64.87918643,-27.15679168,-175.41831965
-37.23152050,-162.85342980

>  <CHROM.1>
80.52992816,-7.71794876,100.92807633,-77.38365153,16.60417375,-160.55134293
112.32934080,2.75214813,-19.53736428,19.34661672,-14.29102573,0.95927751
-0.65065767,-2.88163874

>  <Name>
F2582-0081

>  <RI>
2.73309e+07

>  <Rbt.Current_Directory>
/home/adria/Escritorio/rDock_CMTR_LC/2pxcA_model/inputs_sah

>  <Rbt.Executable>
rbdock ($Id: //depot/dev/client3/rdock/2013.1/src/exe/rbdock.cxx#4 $)

>  <Rbt.Library>
libRbt.so (2013.1, Build901 2013/11/27)

>  <Rbt.Parameter_File>
/home/adria/Escritorio/rDock_2013.1_src/data/scripts/dock.prm

>  <Rbt.Receptor>
sah_rdock.prm

>  <SCORE>
-189.059

>  <SCORE.INTER>
-7.27675

>  <SCORE.INTER.CONST>
1

>  <SCORE.INTER.POLAR>
-0.848528

>  <SCORE.INTER.REPUL>
0

>  <SCORE.INTER.ROT>
8

>  <SCORE.INTER.VDW>
-17.7918

>  <SCORE.INTER.norm>
-0.214022

>  <SCORE.INTRA>
-175.258

>  <SCORE.INTRA.DIHEDRAL>
-0.84979

>  <SCORE.INTRA.DIHEDRAL.0>
6.80919

>  <SCORE.INTRA.POLAR>
0

>  <SCORE.INTRA.POLAR.0>
0

>  <SCORE.INTRA.REPUL>
0.0486094

>  <SCORE.INTRA.REPUL.0>
0

>  <SCORE.INTRA.VDW>
-175.076

>  <SCORE.INTRA.VDW.0>
176.48

>  <SCORE.INTRA.norm>
-5.15463

>  <SCORE.RESTR>
0

>  <SCORE.RESTR.CAVITY>
0

>  <SCORE.RESTR.norm>
0

>  <SCORE.SYSTEM>
-6.52515

>  <SCORE.SYSTEM.CONST>
0

>  <SCORE.SYSTEM.DIHEDRAL>
10.0197

>  <SCORE.SYSTEM.POLAR>
-4.52955

>  <SCORE.SYSTEM.REPUL>
0.0373128

>  <SCORE.SYSTEM.VDW>
3.67889

>  <SCORE.SYSTEM.norm>
-0.191916

>  <SCORE.heavy>
34

>  <SCORE.norm>
-5.56057

$$$$
F2582-0081
  rDOCK(R)          3D
libRbt.so/2013.1/901 2013/11/27
 34 37  0  0  0  0  0  0  0  0999 V2000
  -26.8087   23.2237   -9.1482 C   0  0  0  0  0  0
  -27.1264   22.1115  -10.1101 C   0  0  0  0  0  0
  -25.8831   21.6062  -10.5202 O   0  0  0  0  0  0
  -25.1982   22.3162  -11.4038 C   0  0  0  0  0  0
  -25.5594   23.3131  -12.0495 O   0  0  0  0  0  0
  -24.0667   21.6322  -11.6037 N   0  0  0  0  0  0
  -23.1483   21.0236   -9.9872 C   0  0  0  0  0  0
  -21.8821   19.4863  -10.2851 C   0  0  0  0  0  0
  -21.6362   18.7646  -12.0145 N   0  0  0  0  0  0
  -20.4466   19.2127  -12.8817 C   0  0  0  0  0  0
  -19.8522   18.1107  -13.7663 C   0  0  0  0  0  0
  -19.5008   16.8449  -13.6350 N   0  0  0  0  0  0
  -18.9336   16.5132  -14.8659 C   0  0  0  0  0  0
  -18.9255   17.5391  -15.7429 C   0  0  0  0  0  0
  -19.7521   18.4095  -15.0841 N   0  0  0  0  0  0
  -20.0955   19.7505  -15.4703 C   0  0  0  0  0  0
  -20.2384   21.5240  -14.3567 C   0  0  0  0  0  0
  -20.0735   22.1509  -13.1813 C   0  0  0  0  0  0
  -20.8798   23.3796  -12.8726 C   0  0  0  0  0  0
  -22.1375   23.7447  -13.4269 C   0  0  0  0  0  0
  -22.9455   24.7011  -12.8213 C   0  0  0  0  0  0
  -22.4715   25.3515  -11.6946 C   0  0  0  0  0  0
  -21.2377   25.0038  -11.1463 C   0  0  0  0  0  0
  -20.4588   24.0174  -11.7237 C   0  0  0  0  0  0
  -18.2661   17.5097  -17.0254 C   0  0  0  0  0  0
  -18.0885   18.4925  -17.7432 O   0  0  0  0  0  0
  -17.7800   16.2398  -17.3548 N   0  3  0  0  0  0
  -17.1328   16.0415  -18.6536 C   0  0  0  0  0  0
  -17.8252   15.1284  -16.4918 C   0  0  0  0  0  0
  -17.3468   14.0432  -16.8343 O   0  0  0  0  0  0
  -18.4201   15.3071  -15.2375 N   0  3  0  0  0  0
  -18.5811   14.2321  -14.2981 C   0  0  0  0  0  0
  -22.9008   19.0706  -13.2547 C   0  0  0  0  0  0
  -23.9080   20.7072  -13.2467 C   0  0  0  0  0  0
  1  2  1  0  0  0
  2  3  1  0  0  0
  3  4  1  0  0  0
  4  5  2  0  0  0
  4  6  1  0  0  0
  6  7  1  0  0  0
  6 34  1  0  0  0
  7  8  1  0  0  0
  8  9  1  0  0  0
  9 10  1  0  0  0
  9 33  1  0  0  0
 11 10  1  0  0  0
 11 12  1  0  0  0
 11 15  1  0  0  0
 13 12  1  0  0  0
 13 14  1  0  0  0
 13 31  1  0  0  0
 14 15  1  0  0  0
 14 25  1  0  0  0
 15 16  1  0  0  0
 16 17  1  0  0  0
 17 18  2  0  0  0
 18 19  1  0  0  0
 19 20  2  0  0  0
 19 24  1  0  0  0
 20 21  1  0  0  0
 21 22  2  0  0  0
 22 23  1  0  0  0
 23 24  2  0  0  0
 25 26  2  0  0  0
 25 27  1  0  0  0
 27 28  1  0  0  0
 27 29  1  0  0  0
 29 30  2  0  0  0
 29 31  1  0  0  0
 31 32  1  0  0  0
 33 34  1  0  0  0
M  END
>  <CHROM.0>
40.66229599,-72.64947875,73.70049979,-59.24104893,-29.72471807,-56.98892553
80.48008456,-162.20088944

>  <CHROM.1>
-76.39871806,-8.81795049,-47.34934719,144.99545387,-45.15718496,19.18009673
5.13822211,24.31496571,-21.18950432,19.83853870,-13.53293126,2.42576891,0.69602694
0.01095268

>  <Name>
F2582-0081

>  <RI>
2.73309e+07

>  <Rbt.Current_Directory>
/home/adria/Escritorio/rDock_CMTR_LC/2pxcA_model/inputs_sah

>  <Rbt.Executable>
rbdock ($Id: //depot/dev/client3/rdock/2013.1/src/exe/rbdock.cxx#4 $)

>  <Rbt.Library>
libRbt.so (2013.1, Build901 2013/11/27)

>  <Rbt.Parameter_File>
/home/adria/Escritorio/rDock_2013.1_src/data/scripts/dock.prm

>  <Rbt.Receptor>
sah_rdock.prm

>  <SCORE>
-188.617

>  <SCORE.INTER>
-10.7916

>  <SCORE.INTER.CONST>
1

>  <SCORE.INTER.POLAR>
-0.824621

>  <SCORE.INTER.REPUL>
0.277662

>  <SCORE.INTER.ROT>
8

>  <SCORE.INTER.VDW>
-22.7762

>  <SCORE.INTER.norm>
-0.317399

>  <SCORE.INTRA>
-174.734

>  <SCORE.INTRA.DIHEDRAL>
2.90039

>  <SCORE.INTRA.DIHEDRAL.0>
6.80919

>  <SCORE.INTRA.POLAR>
0

>  <SCORE.INTRA.POLAR.0>
0

>  <SCORE.INTRA.REPUL>
0

>  <SCORE.INTRA.REPUL.0>
0

>  <SCORE.INTRA.VDW>
-176.184

>  <SCORE.INTRA.VDW.0>
176.48

>  <SCORE.INTRA.norm>
-5.13923

>  <SCORE.RESTR>
0.00476844

>  <SCORE.RESTR.CAVITY>
0.00476844

>  <SCORE.RESTR.norm>
0.000140248

>  <SCORE.SYSTEM>
-3.09695

>  <SCORE.SYSTEM.CONST>
0

>  <SCORE.SYSTEM.DIHEDRAL>
7.96307

>  <SCORE.SYSTEM.POLAR>
-3.92388

>  <SCORE.SYSTEM.REPUL>
0.158865

>  <SCORE.SYSTEM.VDW>
5.46838

>  <SCORE.SYSTEM.norm>
-0.0910867

>  <SCORE.heavy>
34

>  <SCORE.norm>
-5.54757

$$$$
F2582-0081
  rDOCK(R)          3D
libRbt.so/2013.1/901 2013/11/27
 34 37  0  0  0  0  0  0  0  0999 V2000
  -26.4187   23.0064   -8.6604 C   0  0  0  0  0  0
  -25.9335   21.6608   -8.1944 C   0  0  0  0  0  0
  -24.9954   21.2496   -9.1536 O   0  0  0  0  0  0
  -23.7976   21.8136   -9.1155 C   0  0  0  0  0  0
  -23.3818   22.7074   -8.3610 O   0  0  0  0  0  0
  -23.1539   21.3452  -10.1898 N   0  0  0  0  0  0
  -21.9195   19.8642   -9.8587 C   0  0  0  0  0  0
  -21.4914   18.7643  -11.4902 C   0  0  0  0  0  0
  -22.2379   19.2051  -13.1698 N   0  0  0  0  0  0
  -21.4348   20.0410  -14.1819 C   0  0  0  0  0  0
  -20.2979   19.2816  -14.8756 C   0  0  0  0  0  0
  -20.0005   18.0270  -15.1593 N   0  0  0  0  0  0
  -18.7293   18.0929  -15.7309 C   0  0  0  0  0  0
  -18.2411   19.3493  -15.8014 C   0  0  0  0  0  0
  -19.3768   20.0530  -15.5020 N   0  0  0  0  0  0
  -19.5063   21.4750  -15.3386 C   0  0  0  0  0  0
  -20.2274   22.6303  -13.7414 C   0  0  0  0  0  0
  -21.2074   23.3968  -13.2374 C   0  0  0  0  0  0
  -20.8897   24.4087  -12.1743 C   0  0  0  0  0  0
  -21.7066   25.4908  -11.7453 C   0  0  0  0  0  0
  -21.4755   26.1374  -10.5358 C   0  0  0  0  0  0
  -20.3824   25.7534   -9.7776 C   0  0  0  0  0  0
  -19.5730   24.6965  -10.1919 C   0  0  0  0  0  0
  -19.8353   24.0239  -11.3717 C   0  0  0  0  0  0
  -16.8971   19.6797  -16.2077 C   0  0  0  0  0  0
  -16.3850   20.7919  -16.0923 O   0  0  0  0  0  0
  -16.1932   18.5745  -16.6982 N   0  3  0  0  0  0
  -14.8307   18.7657  -17.2006 C   0  0  0  0  0  0
  -16.6911   17.2576  -16.6992 C   0  0  0  0  0  0
  -16.0023   16.3225  -17.1173 O   0  0  0  0  0  0
  -17.9833   17.0544  -16.2011 N   0  3  0  0  0  0
  -18.6214   15.7672  -16.2098 C   0  0  0  0  0  0
  -23.7135   20.2308  -13.2052 C   0  0  0  0  0  0
  -24.0076   21.5742  -11.8629 C   0  0  0  0  0  0
  1  2  1  0  0  0
  2  3  1  0  0  0
  3  4  1  0  0  0
  4  5  2  0  0  0
  4  6  1  0  0  0
  6  7  1  0  0  0
  6 34  1  0  0  0
  7  8  1  0  0  0
  8  9  1  0  0  0
  9 10  1  0  0  0
  9 33  1  0  0  0
 11 10  1  0  0  0
 11 12  1  0  0  0
 11 15  1  0  0  0
 13 12  1  0  0  0
 13 14  1  0  0  0
 13 31  1  0  0  0
 14 15  1  0  0  0
 14 25  1  0  0  0
 15 16  1  0  0  0
 16 17  1  0  0  0
 17 18  2  0  0  0
 18 19  1  0  0  0
 19 20  2  0  0  0
 19 24  1  0  0  0
 20 21  1  0  0  0
 21 22  2  0  0  0
 22 23  1  0  0  0
 23 24  2  0  0  0
 25 26  2  0  0  0
 25 27  1  0  0  0
 27 28  1  0  0  0
 27 29  1  0  0  0
 29 30  2  0  0  0
 29 31  1  0  0  0
 31 32  1  0  0  0
 33 34  1  0  0  0
M  END
>  <CHROM.0>
-177.69482484,-72.53445412,76.05371077,64.91793341,168.65910187,65.28398369
80.36017420,-164.04262989

>  <CHROM.1>
76.30365435,-2.50314320,-99.21111382,74.01748670,24.15491902,31.69934056
-106.23794189,164.73965737,-20.53070711,20.77508638,-13.08904001,2.40198263
0.60997219,0.38700500

>  <Name>
F2582-0081

>  <RI>
2.73309e+07

>  <Rbt.Current_Directory>
/home/adria/Escritorio/rDock_CMTR_LC/2pxcA_model/inputs_sah

>  <Rbt.Executable>
rbdock ($Id: //depot/dev/client3/rdock/2013.1/src/exe/rbdock.cxx#4 $)

>  <Rbt.Library>
libRbt.so (2013.1, Build901 2013/11/27)

>  <Rbt.Parameter_File>
/home/adria/Escritorio/rDock_2013.1_src/data/scripts/dock.prm

>  <Rbt.Receptor>
sah_rdock.prm

>  <SCORE>
-190.836

>  <SCORE.INTER>
-13.8945

>  <SCORE.INTER.CONST>
1

>  <SCORE.INTER.POLAR>
0

>  <SCORE.INTER.REPUL>
0

>  <SCORE.INTER.ROT>
8

>  <SCORE.INTER.VDW>
-27.2945

>  <SCORE.INTER.norm>
-0.408661

>  <SCORE.INTRA>
-174.691

>  <SCORE.INTRA.DIHEDRAL>
2.14254

>  <SCORE.INTRA.DIHEDRAL.0>
6.80919

>  <SCORE.INTRA.POLAR>
0

>  <SCORE.INTRA.POLAR.0>
0

>  <SCORE.INTRA.REPUL>
0

>  <SCORE.INTRA.REPUL.0>
0

>  <SCORE.INTRA.VDW>
-175.762

>  <SCORE.INTRA.VDW.0>
176.48

>  <SCORE.INTRA.norm>
-5.13796

>  <SCORE.RESTR>
0

>  <SCORE.RESTR.CAVITY>
0

>  <SCORE.RESTR.norm>
0

>  <SCORE.SYSTEM>
-2.25046

>  <SCORE.SYSTEM.CONST>
0

>  <SCORE.SYSTEM.DIHEDRAL>
3.46958

>  <SCORE.SYSTEM.POLAR>
-3.85029

>  <SCORE.SYSTEM.REPUL>
0.0376936

>  <SCORE.SYSTEM.VDW>
8.91725

>  <SCORE.SYSTEM.norm>
-0.0661901

>  <SCORE.heavy>
34

>  <SCORE.norm>
-5.61281

$$$$
F2582-0081
  rDOCK(R)          3D
libRbt.so/2013.1/901 2013/11/27
 34 37  0  0  0  0  0  0  0  0999 V2000
  -14.0876   20.8069  -16.8947 C   0  0  0  0  0  0
  -14.8945   19.6212  -17.3491 C   0  0  0  0  0  0
  -16.0945   19.6866  -16.6245 O   0  0  0  0  0  0
  -17.0477   18.8249  -16.9453 C   0  0  0  0  0  0
  -17.0804   18.0145  -17.8852 O   0  0  0  0  0  0
  -18.0751   19.1218  -16.1425 N   0  0  0  0  0  0
  -18.3351   17.9208  -14.6204 C   0  0  0  0  0  0
  -19.3990   18.7202  -13.1090 C   0  0  0  0  0  0
  -20.0780   20.4795  -13.2366 N   0  0  0  0  0  0
  -21.5326   20.7211  -13.6767 C   0  0  0  0  0  0
  -22.3184   21.6836  -12.7786 C   0  0  0  0  0  0
  -22.5125   22.9863  -12.6881 N   0  0  0  0  0  0
  -23.2877   23.1421  -11.5385 C   0  0  0  0  0  0
  -23.5696   21.9743  -10.9233 C   0  0  0  0  0  0
  -23.1649   21.1000  -11.8962 N   0  0  0  0  0  0
  -23.1339   19.6650  -11.8236 C   0  0  0  0  0  0
  -23.2380   18.1953  -13.3186 C   0  0  0  0  0  0
  -22.6486   17.1726  -13.9577 C   0  0  0  0  0  0
  -23.0600   16.8352  -15.3620 C   0  0  0  0  0  0
  -24.1910   16.0746  -15.7677 C   0  0  0  0  0  0
  -24.6654   16.1230  -17.0742 C   0  0  0  0  0  0
  -23.9705   16.8782  -18.0038 C   0  0  0  0  0  0
  -22.8579   17.6238  -17.6167 C   0  0  0  0  0  0
  -22.4184   17.6114  -16.3053 C   0  0  0  0  0  0
  -24.2226   21.8651   -9.6419 C   0  0  0  0  0  0
  -24.3107   20.8272   -8.9879 O   0  0  0  0  0  0
  -24.7018   23.0930   -9.1725 N   0  3  0  0  0  0
  -25.4373   23.1318   -7.9066 C   0  0  0  0  0  0
  -24.4820   24.3253   -9.8171 C   0  0  0  0  0  0
  -24.9057   25.3772   -9.3294 O   0  0  0  0  0  0
  -23.7610   24.3083  -11.0165 N   0  3  0  0  0  0
  -23.5291   25.4928  -11.7958 C   0  0  0  0  0  0
  -19.3309   21.5982  -14.4287 C   0  0  0  0  0  0
  -18.6160   20.9341  -16.0843 C   0  0  0  0  0  0
  1  2  1  0  0  0
  2  3  1  0  0  0
  3  4  1  0  0  0
  4  5  2  0  0  0
  4  6  1  0  0  0
  6  7  1  0  0  0
  6 34  1  0  0  0
  7  8  1  0  0  0
  8  9  1  0  0  0
  9 10  1  0  0  0
  9 33  1  0  0  0
 11 10  1  0  0  0
 11 12  1  0  0  0
 11 15  1  0  0  0
 13 12  1  0  0  0
 13 14  1  0  0  0
 13 31  1  0  0  0
 14 15  1  0  0  0
 14 25  1  0  0  0
 15 16  1  0  0  0
 16 17  1  0  0  0
 17 18  2  0  0  0
 18 19  1  0  0  0
 19 20  2  0  0  0
 19 24  1  0  0  0
 20 21  1  0  0  0
 21 22  2  0  0  0
 22 23  1  0  0  0
 23 24  2  0  0  0
 25 26  2  0  0  0
 25 27  1  0  0  0
 27 28  1  0  0  0
 27 29  1  0  0  0
 29 30  2  0  0  0
 29 31  1  0  0  0
 31 32  1  0  0  0
 33 34  1  0  0  0
M  END
>  <CHROM.0>
37.19773176,-167.46616386,-9.51762354,66.39986327,-29.85793035,-61.96642319
80.56284062,-163.65635442

>  <CHROM.1>
173.03699409,-6.42462122,-102.80441017,131.39109869,87.10366959,-50.16187128
117.66511141,-81.18306994,-21.54877364,20.41381831,-13.61117743,-0.86458011
0.36297707,0.68384978

>  <Name>
F2582-0081

>  <RI>
2.73309e+07

>  <Rbt.Current_Directory>
/home/adria/Escritorio/rDock_CMTR_LC/2pxcA_model/inputs_sah

>  <Rbt.Executable>
rbdock ($Id: //depot/dev/client3/rdock/2013.1/src/exe/rbdock.cxx#4 $)

>  <Rbt.Library>
libRbt.so (2013.1, Build901 2013/11/27)

>  <Rbt.Parameter_File>
/home/adria/Escritorio/rDock_2013.1_src/data/scripts/dock.prm

>  <Rbt.Receptor>
sah_rdock.prm

>  <SCORE>
-181.631

>  <SCORE.INTER>
-7.50158

>  <SCORE.INTER.CONST>
1

>  <SCORE.INTER.POLAR>
-0.582769

>  <SCORE.INTER.REPUL>
0.0947524

>  <SCORE.INTER.ROT>
8

>  <SCORE.INTER.VDW>
-19.3939

>  <SCORE.INTER.norm>
-0.220635

>  <SCORE.INTRA>
-172.542

>  <SCORE.INTRA.DIHEDRAL>
11.8556

>  <SCORE.INTRA.DIHEDRAL.0>
6.80919

>  <SCORE.INTRA.POLAR>
0

>  <SCORE.INTRA.POLAR.0>
0

>  <SCORE.INTRA.REPUL>
0

>  <SCORE.INTRA.REPUL.0>
0

>  <SCORE.INTRA.VDW>
-178.47

>  <SCORE.INTRA.VDW.0>
176.48

>  <SCORE.INTRA.norm>
-5.07476

>  <SCORE.RESTR>
0.0621357

>  <SCORE.RESTR.CAVITY>
0.0621357

>  <SCORE.RESTR.norm>
0.00182752

>  <SCORE.SYSTEM>
-1.64949

>  <SCORE.SYSTEM.CONST>
0

>  <SCORE.SYSTEM.DIHEDRAL>
11.567

>  <SCORE.SYSTEM.POLAR>
-4.13263

>  <SCORE.SYSTEM.REPUL>
0.131614

>  <SCORE.SYSTEM.VDW>
5.9599

>  <SCORE.SYSTEM.norm>
-0.0485145

>  <SCORE.heavy>
34

>  <SCORE.norm>
-5.34208

$$$$
F2582-0081
  rDOCK(R)          3D
libRbt.so/2013.1/901 2013/11/27
 34 37  0  0  0  0  0  0  0  0999 V2000
  -23.6651   15.5975  -19.3822 C   0  0  0  0  0  0
  -24.5862   15.9917  -18.2599 C   0  0  0  0  0  0
  -23.7492   16.4749  -17.2424 O   0  0  0  0  0  0
  -24.2938   16.6835  -16.0532 C   0  0  0  0  0  0
  -25.4816   16.5713  -15.7105 O   0  0  0  0  0  0
  -23.3208   17.2215  -15.3102 N   0  0  0  0  0  0
  -22.8223   19.0570  -15.7677 C   0  0  0  0  0  0
  -21.8895   20.0536  -14.2872 C   0  0  0  0  0  0
  -21.5375   19.2096  -12.6332 N   0  0  0  0  0  0
  -20.1578   18.5868  -12.3566 C   0  0  0  0  0  0
  -19.4022   18.1300  -13.6098 C   0  0  0  0  0  0
  -19.3679   17.0636  -14.3875 N   0  0  0  0  0  0
  -18.3449   17.3314  -15.2978 C   0  0  0  0  0  0
  -17.7520   18.5272  -15.0970 C   0  0  0  0  0  0
  -18.6382   19.0752  -14.2087 N   0  0  0  0  0  0
  -18.5317   20.3410  -13.5363 C   0  0  0  0  0  0
  -19.9727   21.7967  -13.0779 C   0  0  0  0  0  0
  -20.4880   23.0113  -13.3253 C   0  0  0  0  0  0
  -21.2496   23.7307  -12.2496 C   0  0  0  0  0  0
  -21.7442   25.0634  -12.2904 C   0  0  0  0  0  0
  -22.7223   25.5002  -11.4034 C   0  0  0  0  0  0
  -23.1640   24.6287  -10.4223 C   0  0  0  0  0  0
  -22.6819   23.3215  -10.3713 C   0  0  0  0  0  0
  -21.7449   22.8760  -11.2861 C   0  0  0  0  0  0
  -16.5754   18.9812  -15.7969 C   0  0  0  0  0  0
  -15.9192   19.9752  -15.4903 O   0  0  0  0  0  0
  -16.2056   18.1289  -16.8430 N   0  3  0  0  0  0
  -15.0594   18.4881  -17.6809 C   0  0  0  0  0  0
  -16.8378   16.9027  -17.1239 C   0  0  0  0  0  0
  -16.4382   16.1824  -18.0434 O   0  0  0  0  0  0
  -17.9208   16.5337  -16.3178 N   0  3  0  0  0  0
  -18.6836   15.3381  -16.5477 C   0  0  0  0  0  0
  -22.4943   17.7514  -12.1984 C   0  0  0  0  0  0
  -23.1105   16.5404  -13.5574 C   0  0  0  0  0  0
  1  2  1  0  0  0
  2  3  1  0  0  0
  3  4  1  0  0  0
  4  5  2  0  0  0
  4  6  1  0  0  0
  6  7  1  0  0  0
  6 34  1  0  0  0
  7  8  1  0  0  0
  8  9  1  0  0  0
  9 10  1  0  0  0
  9 33  1  0  0  0
 11 10  1  0  0  0
 11 12  1  0  0  0
 11 15  1  0  0  0
 13 12  1  0  0  0
 13 14  1  0  0  0
 13 31  1  0  0  0
 14 15  1  0  0  0
 14 25  1  0  0  0
 15 16  1  0  0  0
 16 17  1  0  0  0
 17 18  2  0  0  0
 18 19  1  0  0  0
 19 20  2  0  0  0
 19 24  1  0  0  0
 20 21  1  0  0  0
 21 22  2  0  0  0
 22 23  1  0  0  0
 23 24  2  0  0  0
 25 26  2  0  0  0
 25 27  1  0  0  0
 27 28  1  0  0  0
 27 29  1  0  0  0
 29 30  2  0  0  0
 29 31  1  0  0  0
 31 32  1  0  0  0
 33 34  1  0  0  0
M  END
>  <CHROM.0>
-62.26474364,-75.25142759,72.39127844,64.76532773,-30.23616659,175.07195492
-38.71084920,-166.39576458

>  <CHROM.1>
-169.08708978,-3.81955524,71.16192950,-26.84685479,-84.31075942,-63.62904074
-107.57049378,173.24721110,-20.48297612,19.02877555,-14.70825443,1.23294573
-0.12403221,-2.50723233

>  <Name>
F2582-0081

>  <RI>
2.73309e+07

>  <Rbt.Current_Directory>
/home/adria/Escritorio/rDock_CMTR_LC/2pxcA_model/inputs_sah

>  <Rbt.Executable>
rbdock ($Id: //depot/dev/client3/rdock/2013.1/src/exe/rbdock.cxx#4 $)

>  <Rbt.Library>
libRbt.so (2013.1, Build901 2013/11/27)

>  <Rbt.Parameter_File>
/home/adria/Escritorio/rDock_2013.1_src/data/scripts/dock.prm

>  <Rbt.Receptor>
sah_rdock.prm

>  <SCORE>
-191.835

>  <SCORE.INTER>
-8.60598

>  <SCORE.INTER.CONST>
1

>  <SCORE.INTER.POLAR>
0

>  <SCORE.INTER.REPUL>
0

>  <SCORE.INTER.ROT>
8

>  <SCORE.INTER.VDW>
-22.006

>  <SCORE.INTER.norm>
-0.253117

>  <SCORE.INTRA>
-175.778

>  <SCORE.INTRA.DIHEDRAL>
1.15067

>  <SCORE.INTRA.DIHEDRAL.0>
6.80919

>  <SCORE.INTRA.POLAR>
0

>  <SCORE.INTRA.POLAR.0>
0

>  <SCORE.INTRA.REPUL>
0

>  <SCORE.INTRA.REPUL.0>
0

>  <SCORE.INTRA.VDW>
-176.353

>  <SCORE.INTRA.VDW.0>
176.48

>  <SCORE.INTRA.norm>
-5.16994

>  <SCORE.RESTR>
0.343467

>  <SCORE.RESTR.CAVITY>
0.343467

>  <SCORE.RESTR.norm>
0.010102

>  <SCORE.SYSTEM>
-7.79483

>  <SCORE.SYSTEM.CONST>
0

>  <SCORE.SYSTEM.DIHEDRAL>
6.4782

>  <SCORE.SYSTEM.POLAR>
-4.05477

>  <SCORE.SYSTEM.REPUL>
0.0423058

>  <SCORE.SYSTEM.VDW>
2.54077

>  <SCORE.SYSTEM.norm>
-0.22926

>  <SCORE.heavy>
34

>  <SCORE.norm>
-5.64221

$$$$
F2582-0081
  rDOCK(R)          3D
libRbt.so/2013.1/901 2013/11/27
 34 37  0  0  0  0  0  0  0  0999 V2000
  -25.4801   16.9023  -18.3907 C   0  0  0  0  0  0
  -25.5826   18.3105  -17.8711 C   0  0  0  0  0  0
  -24.8718   18.3145  -16.6612 O   0  0  0  0  0  0
  -24.9081   19.4227  -15.9368 C   0  0  0  0  0  0
  -25.4533   20.5067  -16.1992 O   0  0  0  0  0  0
  -24.0746   19.2023  -14.9146 N   0  0  0  0  0  0
  -24.7595   18.0387  -13.4991 C   0  0  0  0  0  0
  -23.3303   17.1965  -12.3575 C   0  0  0  0  0  0
  -21.5043   17.5690  -12.6729 N   0  0  0  0  0  0
  -20.7769   18.6450  -11.8476 C   0  0  0  0  0  0
  -21.5739   19.9385  -11.6434 C   0  0  0  0  0  0
  -22.7934   20.2779  -11.2684 N   0  0  0  0  0  0
  -22.8281   21.6649  -11.4166 C   0  0  0  0  0  0
  -21.6680   22.1814  -11.8738 C   0  0  0  0  0  0
  -20.8588   21.0859  -11.7326 N   0  0  0  0  0  0
  -19.4819   20.9600  -12.1249 C   0  0  0  0  0  0
  -18.6010   20.4399  -13.9577 C   0  0  0  0  0  0
  -18.6991   20.3770  -15.2949 C   0  0  0  0  0  0
  -17.8793   19.3750  -16.0559 C   0  0  0  0  0  0
  -17.1196   18.2997  -15.5186 C   0  0  0  0  0  0
  -16.6970   17.2419  -16.3167 C   0  0  0  0  0  0
  -16.9704   17.2852  -17.6734 C   0  0  0  0  0  0
  -17.7108   18.3375  -18.2103 C   0  0  0  0  0  0
  -18.1713   19.3630  -17.4044 C   0  0  0  0  0  0
  -21.4842   23.5600  -12.2560 C   0  0  0  0  0  0
  -20.4994   23.9958  -12.8499 O   0  0  0  0  0  0
  -22.5857   24.3613  -11.9366 N   0  3  0  0  0  0
  -22.5242   25.7978  -12.2155 C   0  0  0  0  0  0
  -23.7913   23.8698  -11.4007 C   0  0  0  0  0  0
  -24.7372   24.6296  -11.1731 O   0  0  0  0  0  0
  -23.8747   22.4954  -11.1495 N   0  3  0  0  0  0
  -25.0285   21.8886  -10.5457 C   0  0  0  0  0  0
  -21.0303   18.2124  -14.2830 C   0  0  0  0  0  0
  -22.2231   19.3437  -15.2781 C   0  0  0  0  0  0
  1  2  1  0  0  0
  2  3  1  0  0  0
  3  4  1  0  0  0
  4  5  2  0  0  0
  4  6  1  0  0  0
  6  7  1  0  0  0
  6 34  1  0  0  0
  7  8  1  0  0  0
  8  9  1  0  0  0
  9 10  1  0  0  0
  9 33  1  0  0  0
 11 10  1  0  0  0
 11 12  1  0  0  0
 11 15  1  0  0  0
 13 12  1  0  0  0
 13 14  1  0  0  0
 13 31  1  0  0  0
 14 15  1  0  0  0
 14 25  1  0  0  0
 15 16  1  0  0  0
 16 17  1  0  0  0
 17 18  2  0  0  0
 18 19  1  0  0  0
 19 20  2  0  0  0
 19 24  1  0  0  0
 20 21  1  0  0  0
 21 22  2  0  0  0
 22 23  1  0  0  0
 23 24  2  0  0  0
 25 26  2  0  0  0
 25 27  1  0  0  0
 27 28  1  0  0  0
 27 29  1  0  0  0
 29 30  2  0  0  0
 29 31  1  0  0  0
 31 32  1  0  0  0
 33 34  1  0  0  0
M  END
>  <CHROM.0>
-63.34253812,-72.76265207,-168.07828417,60.39689067,-31.73905194,65.64325067
-156.02904201,-170.79911030

>  <CHROM.1>
-174.23208594,-2.98994397,-76.28315370,-43.64816020,48.33673012,70.04637729
24.83759239,10.41330189,-21.85901878,20.29619797,-13.92203387,1.05666452
-0.02466470,-2.36848653

>  <Name>
F2582-0081

>  <RI>
2.73309e+07

>  <Rbt.Current_Directory>
/home/adria/Escritorio/rDock_CMTR_LC/2pxcA_model/inputs_sah

>  <Rbt.Executable>
rbdock ($Id: //depot/dev/client3/rdock/2013.1/src/exe/rbdock.cxx#4 $)

>  <Rbt.Library>
libRbt.so (2013.1, Build901 2013/11/27)

>  <Rbt.Parameter_File>
/home/adria/Escritorio/rDock_2013.1_src/data/scripts/dock.prm

>  <Rbt.Receptor>
sah_rdock.prm

>  <SCORE>
-191.383

>  <SCORE.INTER>
-3.85111

>  <SCORE.INTER.CONST>
1

>  <SCORE.INTER.POLAR>
0

>  <SCORE.INTER.REPUL>
0.337626

>  <SCORE.INTER.ROT>
8

>  <SCORE.INTER.VDW>
-18.9392

>  <SCORE.INTER.norm>
-0.113268

>  <SCORE.INTRA>
-180.003

>  <SCORE.INTRA.DIHEDRAL>
-0.186306

>  <SCORE.INTRA.DIHEDRAL.0>
6.80919

>  <SCORE.INTRA.POLAR>
0

>  <SCORE.INTRA.POLAR.0>
0

>  <SCORE.INTRA.REPUL>
0

>  <SCORE.INTRA.REPUL.0>
0

>  <SCORE.INTRA.VDW>
-179.91

>  <SCORE.INTRA.VDW.0>
176.48

>  <SCORE.INTRA.norm>
-5.29422

>  <SCORE.RESTR>
0

>  <SCORE.RESTR.CAVITY>
0

>  <SCORE.RESTR.norm>
0

>  <SCORE.SYSTEM>
-7.5288

>  <SCORE.SYSTEM.CONST>
0

>  <SCORE.SYSTEM.DIHEDRAL>
5.88405

>  <SCORE.SYSTEM.POLAR>
-3.97777

>  <SCORE.SYSTEM.REPUL>
0.0381089

>  <SCORE.SYSTEM.VDW>
2.86304

>  <SCORE.SYSTEM.norm>
-0.221435

>  <SCORE.heavy>
34

>  <SCORE.norm>
-5.62892

$$$$
F2582-0081
  rDOCK(R)          3D
libRbt.so/2013.1/901 2013/11/27
 34 37  0  0  0  0  0  0  0  0999 V2000
  -14.9647   13.9719  -18.6770 C   0  0  0  0  0  0
  -16.2174   14.5595  -19.2676 C   0  0  0  0  0  0
  -16.4235   15.7658  -18.5809 O   0  0  0  0  0  0
  -17.0084   15.6993  -17.3945 C   0  0  0  0  0  0
  -17.5405   14.7229  -16.8426 O   0  0  0  0  0  0
  -17.0724   16.9631  -16.9624 N   0  0  0  0  0  0
  -15.3726   17.7547  -16.4048 C   0  0  0  0  0  0
  -15.3586   19.7684  -16.4058 C   0  0  0  0  0  0
  -16.9052   20.7402  -16.8915 N   0  0  0  0  0  0
  -17.8549   21.2816  -15.8084 C   0  0  0  0  0  0
  -18.7623   20.2235  -15.1700 C   0  0  0  0  0  0
  -18.8106   18.9065  -15.0911 N   0  0  0  0  0  0
  -20.0020   18.6434  -14.4143 C   0  0  0  0  0  0
  -20.6835   19.7598  -14.0809 C   0  0  0  0  0  0
  -19.7233   20.7002  -14.3425 N   0  0  0  0  0  0
  -19.8541   22.1291  -14.2598 C   0  0  0  0  0  0
  -21.0143   23.3482  -13.0055 C   0  0  0  0  0  0
  -21.4442   24.5798  -12.6890 C   0  0  0  0  0  0
  -21.8900   24.8758  -11.2859 C   0  0  0  0  0  0
  -22.3551   23.9448  -10.3169 C   0  0  0  0  0  0
  -22.4023   24.2692   -8.9652 C   0  0  0  0  0  0
  -22.0510   25.5516   -8.5790 C   0  0  0  0  0  0
  -21.5980   26.4729   -9.5223 C   0  0  0  0  0  0
  -21.5060   26.1306  -10.8593 C   0  0  0  0  0  0
  -22.0093   19.7661  -13.5131 C   0  0  0  0  0  0
  -22.7109   20.7683  -13.3857 O   0  0  0  0  0  0
  -22.4575   18.4856  -13.1712 N   0  3  0  0  0  0
  -23.7673   18.3381  -12.5324 C   0  0  0  0  0  0
  -21.7484   17.3009  -13.4460 C   0  0  0  0  0  0
  -22.2185   16.1996  -13.1461 O   0  0  0  0  0  0
  -20.5050   17.4229  -14.0770 N   0  3  0  0  0  0
  -19.6626   16.2916  -14.3505 C   0  0  0  0  0  0
  -18.1721   19.9032  -17.8534 C   0  0  0  0  0  0
  -18.4920   18.0216  -17.6292 C   0  0  0  0  0  0
  1  2  1  0  0  0
  2  3  1  0  0  0
  3  4  1  0  0  0
  4  5  2  0  0  0
  4  6  1  0  0  0
  6  7  1  0  0  0
  6 34  1  0  0  0
  7  8  1  0  0  0
  8  9  1  0  0  0
  9 10  1  0  0  0
  9 33  1  0  0  0
 11 10  1  0  0  0
 11 12  1  0  0  0
 11 15  1  0  0  0
 13 12  1  0  0  0
 13 14  1  0  0  0
 13 31  1  0  0  0
 14 15  1  0  0  0
 14 25  1  0  0  0
 15 16  1  0  0  0
 16 17  1  0  0  0
 17 18  2  0  0  0
 18 19  1  0  0  0
 19 20  2  0  0  0
 19 24  1  0  0  0
 20 21  1  0  0  0
 21 22  2  0  0  0
 22 23  1  0  0  0
 23 24  2  0  0  0
 25 26  2  0  0  0
 25 27  1  0  0  0
 27 28  1  0  0  0
 27 29  1  0  0  0
 29 30  2  0  0  0
 29 31  1  0  0  0
 31 32  1  0  0  0
 33 34  1  0  0  0
M  END
>  <CHROM.0>
175.33175590,-167.85772553,-167.19495539,67.05459275,30.28222653,-59.63193673
84.60313038,-160.58093389

>  <CHROM.1>
-81.53123280,-8.49312695,-72.42727589,-76.18850411,16.38315057,-172.58171258
-173.91437958,-23.23006937,-19.61354336,19.66124791,-14.46801322,-0.98747148
0.63578000,0.32191060

>  <Name>
F2582-0081

>  <RI>
2.73309e+07

>  <Rbt.Current_Directory>
/home/adria/Escritorio/rDock_CMTR_LC/2pxcA_model/inputs_sah

>  <Rbt.Executable>
rbdock ($Id: //depot/dev/client3/rdock/2013.1/src/exe/rbdock.cxx#4 $)

>  <Rbt.Library>
libRbt.so (2013.1, Build901 2013/11/27)

>  <Rbt.Parameter_File>
/home/adria/Escritorio/rDock_2013.1_src/data/scripts/dock.prm

>  <Rbt.Receptor>
sah_rdock.prm

>  <SCORE>
-176.696

>  <SCORE.INTER>
-10.2319

>  <SCORE.INTER.CONST>
1

>  <SCORE.INTER.POLAR>
-0.848528

>  <SCORE.INTER.REPUL>
0

>  <SCORE.INTER.ROT>
8

>  <SCORE.INTER.VDW>
-20.7469

>  <SCORE.INTER.norm>
-0.300939

>  <SCORE.INTRA>
-172.713

>  <SCORE.INTRA.DIHEDRAL>
5.39545

>  <SCORE.INTRA.DIHEDRAL.0>
6.80919

>  <SCORE.INTRA.POLAR>
0

>  <SCORE.INTRA.POLAR.0>
0

>  <SCORE.INTRA.REPUL>
0

>  <SCORE.INTRA.REPUL.0>
0

>  <SCORE.INTRA.VDW>
-175.41

>  <SCORE.INTRA.VDW.0>
176.48

>  <SCORE.INTRA.norm>
-5.07978

>  <SCORE.RESTR>
0

>  <SCORE.RESTR.CAVITY>
0

>  <SCORE.RESTR.norm>
0

>  <SCORE.SYSTEM>
6.24807

>  <SCORE.SYSTEM.CONST>
0

>  <SCORE.SYSTEM.DIHEDRAL>
6.81882

>  <SCORE.SYSTEM.POLAR>
-3.35039

>  <SCORE.SYSTEM.VDW>
14.23

>  <SCORE.SYSTEM.norm>
0.183767

>  <SCORE.heavy>
34

>  <SCORE.norm>
-5.19695

$$$$
F2582-0081
  rDOCK(R)          3D
libRbt.so/2013.1/901 2013/11/27
 34 37  0  0  0  0  0  0  0  0999 V2000
  -26.8241   21.1395   -7.8879 C   0  0  0  0  0  0
  -26.8585   22.6132   -8.1885 C   0  0  0  0  0  0
  -25.6857   22.8738   -8.9137 O   0  0  0  0  0  0
  -25.5491   24.0825   -9.4376 C   0  0  0  0  0  0
  -26.3652   25.0177   -9.4606 O   0  0  0  0  0  0
  -24.3936   24.0461  -10.1096 N   0  0  0  0  0  0
  -24.4876   24.5910  -11.9861 C   0  0  0  0  0  0
  -22.7237   25.1657  -12.7694 C   0  0  0  0  0  0
  -21.1497   25.1284  -11.7237 N   0  0  0  0  0  0
  -20.1878   23.9304  -11.8097 C   0  0  0  0  0  0
  -20.8699   22.5593  -11.7395 C   0  0  0  0  0  0
  -21.6141   21.8886  -10.8797 N   0  0  0  0  0  0
  -21.7870   20.6376  -11.4730 C   0  0  0  0  0  0
  -21.1682   20.5238  -12.6671 C   0  0  0  0  0  0
  -20.8509   21.8376  -12.8862 N   0  0  0  0  0  0
  -20.0963   22.3837  -13.9806 C   0  0  0  0  0  0
  -18.9494   21.4594  -15.4760 C   0  0  0  0  0  0
  -18.8784   20.5559  -16.4661 C   0  0  0  0  0  0
  -17.5481   19.9754  -16.8511 C   0  0  0  0  0  0
  -16.2817   20.2710  -16.2756 C   0  0  0  0  0  0
  -15.1881   19.4322  -16.4618 C   0  0  0  0  0  0
  -15.3332   18.3269  -17.2830 C   0  0  0  0  0  0
  -16.5696   18.0311  -17.8554 C   0  0  0  0  0  0
  -17.6673   18.8413  -17.6280 C   0  0  0  0  0  0
  -21.0623   19.2959  -13.4164 C   0  0  0  0  0  0
  -20.3429   19.1373  -14.4012 O   0  0  0  0  0  0
  -21.8245   18.2594  -12.8668 N   0  3  0  0  0  0
  -21.8603   16.9643  -13.5498 C   0  0  0  0  0  0
  -22.5347   18.3578  -11.6551 C   0  0  0  0  0  0
  -23.1610   17.3916  -11.2101 O   0  0  0  0  0  0
  -22.4921   19.5820  -10.9780 N   0  3  0  0  0  0
  -23.2274   19.8216   -9.7672 C   0  0  0  0  0  0
  -21.3144   25.1113   -9.9339 C   0  0  0  0  0  0
  -22.8096   24.2443   -9.0938 C   0  0  0  0  0  0
  1  2  1  0  0  0
  2  3  1  0  0  0
  3  4  1  0  0  0
  4  5  2  0  0  0
  4  6  1  0  0  0
  6  7  1  0  0  0
  6 34  1  0  0  0
  7  8  1  0  0  0
  8  9  1  0  0  0
  9 10  1  0  0  0
  9 33  1  0  0  0
 11 10  1  0  0  0
 11 12  1  0  0  0
 11 15  1  0  0  0
 13 12  1  0  0  0
 13 14  1  0  0  0
 13 31  1  0  0  0
 14 15  1  0  0  0
 14 25  1  0  0  0
 15 16  1  0  0  0
 16 17  1  0  0  0
 17 18  2  0  0  0
 18 19  1  0  0  0
 19 20  2  0  0  0
 19 24  1  0  0  0
 20 21  1  0  0  0
 21 22  2  0  0  0
 22 23  1  0  0  0
 23 24  2  0  0  0
 25 26  2  0  0  0
 25 27  1  0  0  0
 27 28  1  0  0  0
 27 29  1  0  0  0
 29 30  2  0  0  0
 29 31  1  0  0  0
 31 32  1  0  0  0
 33 34  1  0  0  0
M  END
>  <CHROM.0>
39.71492137,-72.70712071,113.51707411,63.61200871,-30.72332788,-56.26477356
84.05645156,-159.45652449

>  <CHROM.1>
172.34717912,-5.52895581,126.29532687,-46.79405434,-61.03027701,144.86708105
54.34134015,-0.02562964,-21.52240932,21.30369922,-12.45700885,2.67742278
0.70221470,0.13095696

>  <Name>
F2582-0081

>  <RI>
2.73309e+07

>  <Rbt.Current_Directory>
/home/adria/Escritorio/rDock_CMTR_LC/2pxcA_model/inputs_sah

>  <Rbt.Executable>
rbdock ($Id: //depot/dev/client3/rdock/2013.1/src/exe/rbdock.cxx#4 $)

>  <Rbt.Library>
libRbt.so (2013.1, Build901 2013/11/27)

>  <Rbt.Parameter_File>
/home/adria/Escritorio/rDock_2013.1_src/data/scripts/dock.prm

>  <Rbt.Receptor>
sah_rdock.prm

>  <SCORE>
-194.419

>  <SCORE.INTER>
-14.8012

>  <SCORE.INTER.CONST>
1

>  <SCORE.INTER.POLAR>
-0.303075

>  <SCORE.INTER.REPUL>
0.140789

>  <SCORE.INTER.ROT>
8

>  <SCORE.INTER.VDW>
-27.8747

>  <SCORE.INTER.norm>
-0.435329

>  <SCORE.INTRA>
-177.651

>  <SCORE.INTRA.DIHEDRAL>
3.17161

>  <SCORE.INTRA.DIHEDRAL.0>
6.80919

>  <SCORE.INTRA.POLAR>
0

>  <SCORE.INTRA.POLAR.0>
0

>  <SCORE.INTRA.REPUL>
0

>  <SCORE.INTRA.REPUL.0>
0

>  <SCORE.INTRA.VDW>
-179.236

>  <SCORE.INTRA.VDW.0>
176.48

>  <SCORE.INTRA.norm>
-5.22502

>  <SCORE.RESTR>
0.895746

>  <SCORE.RESTR.CAVITY>
0.895746

>  <SCORE.RESTR.norm>
0.0263455

>  <SCORE.SYSTEM>
-2.86266

>  <SCORE.SYSTEM.CONST>
0

>  <SCORE.SYSTEM.DIHEDRAL>
11.5143

>  <SCORE.SYSTEM.POLAR>
-4.5309

>  <SCORE.SYSTEM.REPUL>
0.162135

>  <SCORE.SYSTEM.VDW>
5.97455

>  <SCORE.SYSTEM.norm>
-0.084196

>  <SCORE.heavy>
34

>  <SCORE.norm>
-5.7182

$$$$
F2582-0081
  rDOCK(R)          3D
libRbt.so/2013.1/901 2013/11/27
 34 37  0  0  0  0  0  0  0  0999 V2000
  -25.4384   21.0217   -8.3010 C   0  0  0  0  0  0
  -25.3260   22.0520   -9.3915 C   0  0  0  0  0  0
  -25.8698   23.2277   -8.8517 O   0  0  0  0  0  0
  -25.9916   24.2698   -9.6600 C   0  0  0  0  0  0
  -26.9260   25.0824   -9.7470 O   0  0  0  0  0  0
  -24.9636   24.1776  -10.5102 N   0  0  0  0  0  0
  -25.4341   24.1570  -12.4089 C   0  0  0  0  0  0
  -23.9298   24.6850  -13.6391 C   0  0  0  0  0  0
  -22.2281   25.1241  -12.9435 N   0  0  0  0  0  0
  -21.1092   24.0684  -12.9028 C   0  0  0  0  0  0
  -21.6031   22.6191  -12.8264 C   0  0  0  0  0  0
  -22.5980   21.9617  -12.2599 N   0  0  0  0  0  0
  -22.3419   20.6225  -12.5566 C   0  0  0  0  0  0
  -21.2193   20.4430  -13.2841 C   0  0  0  0  0  0
  -20.9668   21.7412  -13.6388 N   0  0  0  0  0  0
  -19.8383   22.2426  -14.3740 C   0  0  0  0  0  0
  -18.5256   21.3037  -15.7160 C   0  0  0  0  0  0
  -18.2350   20.2293  -16.4664 C   0  0  0  0  0  0
  -16.8079   19.9419  -16.8351 C   0  0  0  0  0  0
  -15.6477   20.6286  -16.3829 C   0  0  0  0  0  0
  -14.3809   20.0673  -16.5034 C   0  0  0  0  0  0
  -14.2560   18.8446  -17.1409 C   0  0  0  0  0  0
  -15.3871   18.1656  -17.5917 C   0  0  0  0  0  0
  -16.6499   18.7050  -17.4261 C   0  0  0  0  0  0
  -20.6475   19.1561  -13.5962 C   0  0  0  0  0  0
  -19.5329   18.9866  -14.0876 O   0  0  0  0  0  0
  -21.4737   18.0915  -13.2200 N   0  3  0  0  0  0
  -21.0506   16.7223  -13.5225 C   0  0  0  0  0  0
  -22.6829   18.2410  -12.5145 C   0  0  0  0  0  0
  -23.3473   17.2545  -12.1843 O   0  0  0  0  0  0
  -23.0902   19.5420  -12.1974 N   0  3  0  0  0  0
  -24.3348   19.8230  -11.5371 C   0  0  0  0  0  0
  -22.1089   25.5935  -11.2125 C   0  0  0  0  0  0
  -23.2950   24.8336   -9.9053 C   0  0  0  0  0  0
  1  2  1  0  0  0
  2  3  1  0  0  0
  3  4  1  0  0  0
  4  5  2  0  0  0
  4  6  1  0  0  0
  6  7  1  0  0  0
  6 34  1  0  0  0
  7  8  1  0  0  0
  8  9  1  0  0  0
  9 10  1  0  0  0
  9 33  1  0  0  0
 11 10  1  0  0  0
 11 12  1  0  0  0
 11 15  1  0  0  0
 13 12  1  0  0  0
 13 14  1  0  0  0
 13 31  1  0  0  0
 14 15  1  0  0  0
 14 25  1  0  0  0
 15 16  1  0  0  0
 16 17  1  0  0  0
 17 18  2  0  0  0
 18 19  1  0  0  0
 19 20  2  0  0  0
 19 24  1  0  0  0
 20 21  1  0  0  0
 21 22  2  0  0  0
 22 23  1  0  0  0
 23 24  2  0  0  0
 25 26  2  0  0  0
 25 27  1  0  0  0
 27 28  1  0  0  0
 27 29  1  0  0  0
 29 30  2  0  0  0
 29 31  1  0  0  0
 31 32  1  0  0  0
 33 34  1  0  0  0
M  END
>  <CHROM.0>
42.15032471,-73.44397439,72.33795322,63.57507925,-30.84117208,-178.21090444
-159.19955107,-162.11306213

>  <CHROM.1>
-174.51769091,139.33448226,124.47262171,-26.72631559,-35.77239492,179.03881514
10.93999894,5.88432030,-21.51992174,21.30623526,-12.99952923,2.75483783,0.62370309
0.00972124

>  <Name>
F2582-0081

>  <RI>
2.73309e+07

>  <Rbt.Current_Directory>
/home/adria/Escritorio/rDock_CMTR_LC/2pxcA_model/inputs_sah

>  <Rbt.Executable>
rbdock ($Id: //depot/dev/client3/rdock/2013.1/src/exe/rbdock.cxx#4 $)

>  <Rbt.Library>
libRbt.so (2013.1, Build901 2013/11/27)

>  <Rbt.Parameter_File>
/home/adria/Escritorio/rDock_2013.1_src/data/scripts/dock.prm

>  <Rbt.Receptor>
sah_rdock.prm

>  <SCORE>
-187.963

>  <SCORE.INTER>
-13.6008

>  <SCORE.INTER.CONST>
1

>  <SCORE.INTER.POLAR>
-0.939995

>  <SCORE.INTER.REPUL>
0

>  <SCORE.INTER.ROT>
8

>  <SCORE.INTER.VDW>
-23.8048

>  <SCORE.INTER.norm>
-0.400024

>  <SCORE.INTRA>
-170.788

>  <SCORE.INTRA.DIHEDRAL>
7.80558

>  <SCORE.INTRA.DIHEDRAL.0>
6.80919

>  <SCORE.INTRA.POLAR>
0

>  <SCORE.INTRA.POLAR.0>
0

>  <SCORE.INTRA.REPUL>
0

>  <SCORE.INTRA.REPUL.0>
0

>  <SCORE.INTRA.VDW>
-174.691

>  <SCORE.INTRA.VDW.0>
176.48

>  <SCORE.INTRA.norm>
-5.02318

>  <SCORE.RESTR>
0

>  <SCORE.RESTR.CAVITY>
0

>  <SCORE.RESTR.norm>
0

>  <SCORE.SYSTEM>
-3.57414

>  <SCORE.SYSTEM.CONST>
0

>  <SCORE.SYSTEM.DIHEDRAL>
7.61092

>  <SCORE.SYSTEM.POLAR>
-3.99237

>  <SCORE.SYSTEM.REPUL>
0.154958

>  <SCORE.SYSTEM.VDW>
5.41967

>  <SCORE.SYSTEM.norm>
-0.105122

>  <SCORE.heavy>
34

>  <SCORE.norm>
-5.52833

$$$$
F2582-0081
  rDOCK(R)          3D
libRbt.so/2013.1/901 2013/11/27
 34 37  0  0  0  0  0  0  0  0999 V2000
  -28.0933   24.5036  -12.0101 C   0  0  0  0  0  0
  -27.9276   23.5496  -10.8587 C   0  0  0  0  0  0
  -26.5468   23.3199  -10.7600 O   0  0  0  0  0  0
  -25.8206   24.2326  -10.1324 C   0  0  0  0  0  0
  -26.1997   25.1585   -9.3974 O   0  0  0  0  0  0
  -24.5757   24.0689  -10.5922 N   0  0  0  0  0  0
  -24.2780   24.6206  -12.4453 C   0  0  0  0  0  0
  -22.3519   24.9970  -12.8964 C   0  0  0  0  0  0
  -21.0002   24.7864  -11.5922 N   0  0  0  0  0  0
  -20.1740   23.4896  -11.5316 C   0  0  0  0  0  0
  -21.0077   22.2031  -11.5203 C   0  0  0  0  0  0
  -21.8012   21.5684  -10.6774 N   0  0  0  0  0  0
  -22.1330   20.3850  -11.3380 C   0  0  0  0  0  0
  -21.5633   20.2771  -12.5569 C   0  0  0  0  0  0
  -21.1025   21.5576  -12.7078 N   0  0  0  0  0  0
  -20.3193   22.0824  -13.7926 C   0  0  0  0  0  0
  -18.9799   21.1544  -15.1157 C   0  0  0  0  0  0
  -18.6985   20.7639  -16.3687 C   0  0  0  0  0  0
  -17.7420   19.6292  -16.5984 C   0  0  0  0  0  0
  -16.9469   18.9641  -15.6250 C   0  0  0  0  0  0
  -16.3777   17.7213  -15.8813 C   0  0  0  0  0  0
  -16.5404   17.1646  -17.1386 C   0  0  0  0  0  0
  -17.3145   17.8111  -18.1011 C   0  0  0  0  0  0
  -17.9195   19.0241  -17.8258 C   0  0  0  0  0  0
  -21.6197   19.0948  -13.3811 C   0  0  0  0  0  0
  -20.9498   18.9179  -14.3972 O   0  0  0  0  0  0
  -22.4815   18.1189  -12.8688 N   0  3  0  0  0  0
  -22.6846   16.8819  -13.6262 C   0  0  0  0  0  0
  -23.1431   18.2208  -11.6303 C   0  0  0  0  0  0
  -23.8647   17.3058  -11.2228 O   0  0  0  0  0  0
  -22.9416   19.3871  -10.8833 N   0  3  0  0  0  0
  -23.6120   19.6319   -9.6364 C   0  0  0  0  0  0
  -21.4784   24.7878   -9.8596 C   0  0  0  0  0  0
  -23.1834   24.0911   -9.3111 C   0  0  0  0  0  0
  1  2  1  0  0  0
  2  3  1  0  0  0
  3  4  1  0  0  0
  4  5  2  0  0  0
  4  6  1  0  0  0
  6  7  1  0  0  0
  6 34  1  0  0  0
  7  8  1  0  0  0
  8  9  1  0  0  0
  9 10  1  0  0  0
  9 33  1  0  0  0
 11 10  1  0  0  0
 11 12  1  0  0  0
 11 15  1  0  0  0
 13 12  1  0  0  0
 13 14  1  0  0  0
 13 31  1  0  0  0
 14 15  1  0  0  0
 14 25  1  0  0  0
 15 16  1  0  0  0
 16 17  1  0  0  0
 17 18  2  0  0  0
 18 19  1  0  0  0
 19 20  2  0  0  0
 19 24  1  0  0  0
 20 21  1  0  0  0
 21 22  2  0  0  0
 22 23  1  0  0  0
 23 24  2  0  0  0
 25 26  2  0  0  0
 25 27  1  0  0  0
 27 28  1  0  0  0
 27 29  1  0  0  0
 29 30  2  0  0  0
 29 31  1  0  0  0
 31 32  1  0  0  0
 33 34  1  0  0  0
M  END
>  <CHROM.0>
-177.79575121,-74.39380540,-47.70561272,55.83788736,167.43500175,-177.31971658
-156.71920638,-162.42429928

>  <CHROM.1>
80.83998622,14.57125236,70.87047538,-50.42301323,-71.29410409,128.94685876
112.27544764,-7.31243635,-21.92855175,21.20528745,-12.69064454,2.52698606
0.57838477,0.15174590

>  <Name>
F2582-0081

>  <RI>
2.73309e+07

>  <Rbt.Current_Directory>
/home/adria/Escritorio/rDock_CMTR_LC/2pxcA_model/inputs_sah

>  <Rbt.Executable>
rbdock ($Id: //depot/dev/client3/rdock/2013.1/src/exe/rbdock.cxx#4 $)

>  <Rbt.Library>
libRbt.so (2013.1, Build901 2013/11/27)

>  <Rbt.Parameter_File>
/home/adria/Escritorio/rDock_2013.1_src/data/scripts/dock.prm

>  <Rbt.Receptor>
sah_rdock.prm

>  <SCORE>
-191.122

>  <SCORE.INTER>
-13.194

>  <SCORE.INTER.CONST>
1

>  <SCORE.INTER.POLAR>
-0.79175

>  <SCORE.INTER.REPUL>
0

>  <SCORE.INTER.ROT>
8

>  <SCORE.INTER.VDW>
-23.9021

>  <SCORE.INTER.norm>
-0.38806

>  <SCORE.INTRA>
-176.178

>  <SCORE.INTRA.DIHEDRAL>
4.76507

>  <SCORE.INTRA.DIHEDRAL.0>
6.80919

>  <SCORE.INTRA.POLAR>
0

>  <SCORE.INTRA.POLAR.0>
0

>  <SCORE.INTRA.REPUL>
0

>  <SCORE.INTRA.REPUL.0>
0

>  <SCORE.INTRA.VDW>
-178.561

>  <SCORE.INTRA.VDW.0>
176.48

>  <SCORE.INTRA.norm>
-5.18171

>  <SCORE.RESTR>
0.557834

>  <SCORE.RESTR.CAVITY>
0.557834

>  <SCORE.RESTR.norm>
0.0164069

>  <SCORE.SYSTEM>
-2.30731

>  <SCORE.SYSTEM.CONST>
0

>  <SCORE.SYSTEM.DIHEDRAL>
3.83105

>  <SCORE.SYSTEM.POLAR>
-3.9822

>  <SCORE.SYSTEM.REPUL>
0.040929

>  <SCORE.SYSTEM.VDW>
9.112

>  <SCORE.SYSTEM.norm>
-0.0678619

>  <SCORE.heavy>
34

>  <SCORE.norm>
-5.62122

$$$$
F2582-0081
  rDOCK(R)          3D
libRbt.so/2013.1/901 2013/11/27
 34 37  0  0  0  0  0  0  0  0999 V2000
  -14.0338   20.6808  -17.2636 C   0  0  0  0  0  0
  -14.5459   19.8796  -16.0978 C   0  0  0  0  0  0
  -14.2071   18.5480  -16.3824 O   0  0  0  0  0  0
  -14.9834   17.8894  -17.2295 C   0  0  0  0  0  0
  -14.6890   17.3878  -18.3263 O   0  0  0  0  0  0
  -16.2229   18.0202  -16.7454 N   0  0  0  0  0  0
  -17.3291   19.3844  -17.6069 C   0  0  0  0  0  0
  -19.3098   19.1238  -17.3537 C   0  0  0  0  0  0
  -19.9660   17.6739  -16.3341 N   0  0  0  0  0  0
  -20.3463   17.8723  -14.8562 C   0  0  0  0  0  0
  -21.8438   18.0860  -14.6069 C   0  0  0  0  0  0
  -22.9806   17.5448  -15.0041 N   0  0  0  0  0  0
  -23.9662   18.3435  -14.4231 C   0  0  0  0  0  0
  -23.4651   19.3573  -13.6864 C   0  0  0  0  0  0
  -22.1529   18.9708  -13.6284 N   0  0  0  0  0  0
  -21.0568   19.6854  -13.0338 C   0  0  0  0  0  0
  -20.9017   21.6566  -12.3295 C   0  0  0  0  0  0
  -20.2398   22.8244  -12.3400 C   0  0  0  0  0  0
  -20.3430   23.7498  -11.1619 C   0  0  0  0  0  0
  -19.3710   24.6879  -10.7175 C   0  0  0  0  0  0
  -19.7063   25.7221   -9.8501 C   0  0  0  0  0  0
  -21.0014   25.7857   -9.3642 C   0  0  0  0  0  0
  -21.9603   24.8679   -9.7906 C   0  0  0  0  0  0
  -21.6345   23.8701  -10.6914 C   0  0  0  0  0  0
  -24.2588   20.4123  -13.1054 C   0  0  0  0  0  0
  -23.8000   21.4360  -12.6011 O   0  0  0  0  0  0
  -25.6338   20.1858  -13.2294 N   0  3  0  0  0  0
  -26.5684   21.1460  -12.6381 C   0  0  0  0  0  0
  -26.1959   19.1063  -13.9372 C   0  0  0  0  0  0
  -27.4204   18.9848  -14.0352 O   0  0  0  0  0  0
  -25.3162   18.1919  -14.5279 N   0  3  0  0  0  0
  -25.7713   17.0181  -15.2201 C   0  0  0  0  0  0
  -18.8863   16.2624  -16.0642 C   0  0  0  0  0  0
  -16.9837   16.4942  -15.9250 C   0  0  0  0  0  0
  1  2  1  0  0  0
  2  3  1  0  0  0
  3  4  1  0  0  0
  4  5  2  0  0  0
  4  6  1  0  0  0
  6  7  1  0  0  0
  6 34  1  0  0  0
  7  8  1  0  0  0
  8  9  1  0  0  0
  9 10  1  0  0  0
  9 33  1  0  0  0
 11 10  1  0  0  0
 11 12  1  0  0  0
 11 15  1  0  0  0
 13 12  1  0  0  0
 13 14  1  0  0  0
 13 31  1  0  0  0
 14 15  1  0  0  0
 14 25  1  0  0  0
 15 16  1  0  0  0
 16 17  1  0  0  0
 17 18  2  0  0  0
 18 19  1  0  0  0
 19 20  2  0  0  0
 19 24  1  0  0  0
 20 21  1  0  0  0
 21 22  2  0  0  0
 22 23  1  0  0  0
 23 24  2  0  0  0
 25 26  2  0  0  0
 25 27  1  0  0  0
 27 28  1  0  0  0
 27 29  1  0  0  0
 29 30  2  0  0  0
 29 31  1  0  0  0
 31 32  1  0  0  0
 33 34  1  0  0  0
M  END
>  <CHROM.0>
-64.51514606,-74.23541291,110.50148691,-66.03157099,29.60135092,-177.35147795
83.43382724,-160.93540012

>  <CHROM.1>
-79.65752223,118.62524085,100.09357696,98.05769897,45.22356264,143.93015105
-127.92229611,151.62747149,-20.76785826,19.94894136,-14.20170379,-0.52888182
0.20719042,0.66409678

>  <Name>
F2582-0081

>  <RI>
2.73309e+07

>  <Rbt.Current_Directory>
/home/adria/Escritorio/rDock_CMTR_LC/2pxcA_model/inputs_sah

>  <Rbt.Executable>
rbdock ($Id: //depot/dev/client3/rdock/2013.1/src/exe/rbdock.cxx#4 $)

>  <Rbt.Library>
libRbt.so (2013.1, Build901 2013/11/27)

>  <Rbt.Parameter_File>
/home/adria/Escritorio/rDock_2013.1_src/data/scripts/dock.prm

>  <Rbt.Receptor>
sah_rdock.prm

>  <SCORE>
-166.256

>  <SCORE.INTER>
-8.29061

>  <SCORE.INTER.CONST>
1

>  <SCORE.INTER.POLAR>
0

>  <SCORE.INTER.REPUL>
0.0687569

>  <SCORE.INTER.ROT>
8

>  <SCORE.INTER.VDW>
-22.0344

>  <SCORE.INTER.norm>
-0.243842

>  <SCORE.INTRA>
-163.452

>  <SCORE.INTRA.DIHEDRAL>
23.4575

>  <SCORE.INTRA.DIHEDRAL.0>
6.80919

>  <SCORE.INTRA.POLAR>
0

>  <SCORE.INTRA.POLAR.0>
0

>  <SCORE.INTRA.REPUL>
0

>  <SCORE.INTRA.REPUL.0>
0

>  <SCORE.INTRA.VDW>
-175.18

>  <SCORE.INTRA.VDW.0>
176.48

>  <SCORE.INTRA.norm>
-4.8074

>  <SCORE.RESTR>
0.701145

>  <SCORE.RESTR.CAVITY>
0.701145

>  <SCORE.RESTR.norm>
0.0206219

>  <SCORE.SYSTEM>
4.78507

>  <SCORE.SYSTEM.CONST>
0

>  <SCORE.SYSTEM.DIHEDRAL>
10.0127

>  <SCORE.SYSTEM.POLAR>
-4.36791

>  <SCORE.SYSTEM.REPUL>
0.0406667

>  <SCORE.SYSTEM.VDW>
14.4263

>  <SCORE.SYSTEM.norm>
0.140737

>  <SCORE.heavy>
34

>  <SCORE.norm>
-4.88988

$$$$
