F2964-2754
  rDOCK(R)          3D
libRbt.so/2013.1/901 2013/11/27
 28 30  0  0  0  0  0  0  0  0999 V2000
  -27.1640   20.2171  -13.5572 C   0  0  0  0  0  0
  -25.4196   20.2147  -13.2113 C   0  0  0  0  0  0
  -24.2227   21.2025  -12.9197 C   0  0  0  0  0  0
  -25.2876   19.2022  -12.2372 N   0  0  0  0  0  0
  -25.0665   17.9622  -12.7002 C   0  0  0  0  0  0
  -25.0855   17.0418  -11.8698 O   0  0  0  0  0  0
  -24.5806   17.7562  -14.1657 C   0  0  0  0  0  0
  -22.9815   18.3452  -14.9043 S   0  0  0  0  0  0
  -21.4004   18.4122  -13.9177 C   0  0  0  0  0  0
  -21.5149   17.9033  -12.6919 N   0  0  0  0  0  0
  -20.3965   18.3509  -12.0160 C   0  0  0  0  0  0
  -19.8342   19.3852  -12.7759 C   0  0  0  0  0  0
  -19.8775   18.6513  -14.0615 N   0  0  0  0  0  0
  -18.4818   18.3832  -15.0422 C   0  0  0  0  0  0
  -18.0179   17.4562  -16.2607 C   0  0  0  0  0  0
  -18.4540   16.0790  -17.0079 C   0  0  0  0  0  0
  -16.9773   17.8399  -17.1610 C   0  0  0  0  0  0
  -16.3643   19.0591  -16.9883 C   0  0  0  0  0  0
  -16.6406   19.8395  -15.8951 C   0  0  0  0  0  0
  -17.6186   19.5036  -14.9065 C   0  0  0  0  0  0
  -20.4098   20.8057  -12.6273 C   0  0  0  0  0  0
  -20.8796   21.3011  -11.4144 C   0  0  0  0  0  0
  -21.3702   22.6171  -11.3154 C   0  0  0  0  0  0
  -21.4777   23.4631  -12.4313 C   0  0  0  0  0  0
  -22.2076   24.7693  -12.3305 C   0  0  0  0  0  0
  -20.9937   22.9973  -13.6545 C   0  0  0  0  0  0
  -20.4612   21.6998  -13.7404 C   0  0  0  0  0  0
  -25.4694   19.3942  -11.2693 H   0  0  0  0  0  0
  1  2  1  0  0  0
  2  3  1  0  0  0
  2  4  1  0  0  0
  4  5  1  0  0  0
  4 28  1  0  0  0
  5  6  2  0  0  0
  5  7  1  0  0  0
  7  8  1  0  0  0
  8  9  1  0  0  0
  9 10  2  0  0  0
  9 13  1  0  0  0
 10 11  1  0  0  0
 11 12  2  0  0  0
 12 13  1  0  0  0
 12 21  1  0  0  0
 13 14  1  0  0  0
 14 15  2  0  0  0
 14 20  1  0  0  0
 15 16  1  0  0  0
 15 17  1  0  0  0
 17 18  2  0  0  0
 18 19  1  0  0  0
 19 20  2  0  0  0
 21 22  2  0  0  0
 21 27  1  0  0  0
 22 23  1  0  0  0
 23 24  2  0  0  0
 24 25  1  0  0  0
 24 26  1  0  0  0
 26 27  2  0  0  0
M  END
>  <CHROM.0>
-175.69717703,-77.33494371,-165.97195773,62.75014267,168.49612586,-179.62635113
-36.34922895,-164.88802872

>  <CHROM.1>
89.72991248,63.12717628,34.69082559,5.03330947,35.39753564,-15.40346521,-21.42355303
19.57085241,-13.80642252,2.77983168,0.31775761,0.41313294

>  <Name>
F2964-2754

>  <RI>
1.96345e+07

>  <Rbt.Current_Directory>
/home/adria/Escritorio/rDock_CMTR_LC/2pxcA_model/inputs_sah

>  <Rbt.Executable>
rbdock ($Id: //depot/dev/client3/rdock/2013.1/src/exe/rbdock.cxx#4 $)

>  <Rbt.Library>
libRbt.so (2013.1, Build901 2013/11/27)

>  <Rbt.Parameter_File>
/home/adria/Escritorio/rDock_2013.1_src/data/scripts/dock.prm

>  <Rbt.Receptor>
sah_rdock.prm

>  <SCORE>
-56.333

>  <SCORE.INTER>
-6.44329

>  <SCORE.INTER.CONST>
1

>  <SCORE.INTER.POLAR>
0

>  <SCORE.INTER.REPUL>
0.0186559

>  <SCORE.INTER.ROT>
6

>  <SCORE.INTER.VDW>
-17.9366

>  <SCORE.INTER.norm>
-0.23864

>  <SCORE.INTRA>
-47.7439

>  <SCORE.INTRA.DIHEDRAL>
-0.904161

>  <SCORE.INTRA.DIHEDRAL.0>
10.0861

>  <SCORE.INTRA.POLAR>
0

>  <SCORE.INTRA.POLAR.0>
0

>  <SCORE.INTRA.REPUL>
0

>  <SCORE.INTRA.REPUL.0>
0

>  <SCORE.INTRA.VDW>
-47.2918

>  <SCORE.INTRA.VDW.0>
43.0757

>  <SCORE.INTRA.norm>
-1.76829

>  <SCORE.RESTR>
0

>  <SCORE.RESTR.CAVITY>
0

>  <SCORE.RESTR.norm>
0

>  <SCORE.SYSTEM>
-2.1458

>  <SCORE.SYSTEM.CONST>
0

>  <SCORE.SYSTEM.DIHEDRAL>
4.149

>  <SCORE.SYSTEM.POLAR>
-3.94703

>  <SCORE.SYSTEM.REPUL>
0.0453408

>  <SCORE.SYSTEM.VDW>
8.97289

>  <SCORE.SYSTEM.norm>
-0.079474

>  <SCORE.heavy>
27

>  <SCORE.norm>
-2.08641

$$$$
F2964-2754
  rDOCK(R)          3D
libRbt.so/2013.1/901 2013/11/27
 28 30  0  0  0  0  0  0  0  0999 V2000
  -23.2824   20.6537  -11.2053 C   0  0  0  0  0  0
  -21.9198   21.7620  -11.4834 C   0  0  0  0  0  0
  -21.4152   23.2095  -11.1045 C   0  0  0  0  0  0
  -20.7913   20.9349  -11.2990 N   0  0  0  0  0  0
  -19.9791   20.7989  -12.3585 C   0  0  0  0  0  0
  -19.0620   19.9705  -12.2595 O   0  0  0  0  0  0
  -20.0678   21.8108  -13.5394 C   0  0  0  0  0  0
  -18.8688   21.9917  -14.9463 S   0  0  0  0  0  0
  -18.6827   20.6842  -16.2630 C   0  0  0  0  0  0
  -19.1548   21.0544  -17.4525 N   0  0  0  0  0  0
  -19.2577   19.8811  -18.1741 C   0  0  0  0  0  0
  -19.1571   18.8200  -17.2646 C   0  0  0  0  0  0
  -17.9619   19.3483  -16.5677 N   0  0  0  0  0  0
  -16.4956   18.4522  -16.3981 C   0  0  0  0  0  0
  -15.9835   16.9394  -16.4899 C   0  0  0  0  0  0
  -16.5760   15.4250  -16.4606 C   0  0  0  0  0  0
  -14.6283   16.6077  -16.7963 C   0  0  0  0  0  0
  -13.7340   17.6236  -17.0416 C   0  0  0  0  0  0
  -14.0896   18.9357  -16.8623 C   0  0  0  0  0  0
  -15.4051   19.3582  -16.4912 C   0  0  0  0  0  0
  -20.4202   18.3820  -16.5005 C   0  0  0  0  0  0
  -21.6925   18.4365  -17.0619 C   0  0  0  0  0  0
  -22.8183   17.9974  -16.3390 C   0  0  0  0  0  0
  -22.7295   17.5558  -15.0087 C   0  0  0  0  0  0
  -23.9699   17.3098  -14.2026 C   0  0  0  0  0  0
  -21.4622   17.4719  -14.4305 C   0  0  0  0  0  0
  -20.3350   17.8665  -15.1707 C   0  0  0  0  0  0
  -20.6822   20.3949  -10.4605 H   0  0  0  0  0  0
  1  2  1  0  0  0
  2  3  1  0  0  0
  2  4  1  0  0  0
  4  5  1  0  0  0
  4 28  1  0  0  0
  5  6  2  0  0  0
  5  7  1  0  0  0
  7  8  1  0  0  0
  8  9  1  0  0  0
  9 10  2  0  0  0
  9 13  1  0  0  0
 10 11  1  0  0  0
 11 12  2  0  0  0
 12 13  1  0  0  0
 12 21  1  0  0  0
 13 14  1  0  0  0
 14 15  2  0  0  0
 14 20  1  0  0  0
 15 16  1  0  0  0
 15 17  1  0  0  0
 17 18  2  0  0  0
 18 19  1  0  0  0
 19 20  2  0  0  0
 21 22  2  0  0  0
 21 27  1  0  0  0
 22 23  1  0  0  0
 23 24  2  0  0  0
 24 25  1  0  0  0
 24 26  1  0  0  0
 26 27  2  0  0  0
M  END
>  <CHROM.0>
-176.52180680,-167.24022200,106.87323570,66.38961014,167.59534569,-59.72513106
-156.63416362,-166.56972541

>  <CHROM.1>
119.01872101,168.65941281,68.80739045,109.73094510,33.78283805,162.20241257
-19.28955727,19.40248692,-15.05242239,-2.48048562,-0.25434459,-2.44401219

>  <Name>
F2964-2754

>  <RI>
1.96345e+07

>  <Rbt.Current_Directory>
/home/adria/Escritorio/rDock_CMTR_LC/2pxcA_model/inputs_sah

>  <Rbt.Executable>
rbdock ($Id: //depot/dev/client3/rdock/2013.1/src/exe/rbdock.cxx#4 $)

>  <Rbt.Library>
libRbt.so (2013.1, Build901 2013/11/27)

>  <Rbt.Parameter_File>
/home/adria/Escritorio/rDock_2013.1_src/data/scripts/dock.prm

>  <Rbt.Receptor>
sah_rdock.prm

>  <SCORE>
-54.5111

>  <SCORE.INTER>
-9.45721

>  <SCORE.INTER.CONST>
1

>  <SCORE.INTER.POLAR>
-0.483123

>  <SCORE.INTER.REPUL>
0.0692434

>  <SCORE.INTER.ROT>
6

>  <SCORE.INTER.VDW>
-19.5608

>  <SCORE.INTER.norm>
-0.350267

>  <SCORE.INTRA>
-44.1356

>  <SCORE.INTRA.DIHEDRAL>
2.61838

>  <SCORE.INTRA.DIHEDRAL.0>
10.0861

>  <SCORE.INTRA.POLAR>
0

>  <SCORE.INTRA.POLAR.0>
0

>  <SCORE.INTRA.REPUL>
0

>  <SCORE.INTRA.REPUL.0>
0

>  <SCORE.INTRA.VDW>
-45.4447

>  <SCORE.INTRA.VDW.0>
43.0757

>  <SCORE.INTRA.norm>
-1.63465

>  <SCORE.RESTR>
0

>  <SCORE.RESTR.CAVITY>
0

>  <SCORE.RESTR.norm>
0

>  <SCORE.SYSTEM>
-0.918354

>  <SCORE.SYSTEM.CONST>
0

>  <SCORE.SYSTEM.DIHEDRAL>
6.40385

>  <SCORE.SYSTEM.POLAR>
-4.16007

>  <SCORE.SYSTEM.VDW>
10.024

>  <SCORE.SYSTEM.norm>
-0.0340131

>  <SCORE.heavy>
27

>  <SCORE.norm>
-2.01893

$$$$
F2964-2754
  rDOCK(R)          3D
libRbt.so/2013.1/901 2013/11/27
 28 30  0  0  0  0  0  0  0  0999 V2000
  -21.7203   24.9193   -8.6587 C   0  0  0  0  0  0
  -22.9062   24.7598   -9.9743 C   0  0  0  0  0  0
  -24.3954   24.3061  -10.2388 C   0  0  0  0  0  0
  -22.7803   25.9818  -10.6689 N   0  0  0  0  0  0
  -22.1583   25.9248  -11.8566 C   0  0  0  0  0  0
  -21.9168   27.0048  -12.4156 O   0  0  0  0  0  0
  -21.9785   24.5537  -12.5735 C   0  0  0  0  0  0
  -20.9028   23.1415  -12.0272 S   0  0  0  0  0  0
  -21.4652   21.3670  -12.1403 C   0  0  0  0  0  0
  -21.0244   20.6033  -11.1418 N   0  0  0  0  0  0
  -21.2286   19.3062  -11.5704 C   0  0  0  0  0  0
  -21.4751   19.3547  -12.9489 C   0  0  0  0  0  0
  -22.4723   20.4469  -12.8726 N   0  0  0  0  0  0
  -24.0750   20.3067  -13.4997 C   0  0  0  0  0  0
  -25.3964   21.1948  -13.6554 C   0  0  0  0  0  0
  -26.0622   22.5464  -13.0430 C   0  0  0  0  0  0
  -26.3704   20.9458  -14.6703 C   0  0  0  0  0  0
  -26.1566   19.9186  -15.5597 C   0  0  0  0  0  0
  -25.1031   19.0554  -15.4012 C   0  0  0  0  0  0
  -24.1162   19.1873  -14.3739 C   0  0  0  0  0  0
  -20.2739   19.4120  -13.9107 C   0  0  0  0  0  0
  -20.1962   20.3236  -14.9595 C   0  0  0  0  0  0
  -19.0655   20.3627  -15.7976 C   0  0  0  0  0  0
  -18.0045   19.4517  -15.6682 C   0  0  0  0  0  0
  -16.9294   19.3800  -16.7113 C   0  0  0  0  0  0
  -18.0489   18.5416  -14.6112 C   0  0  0  0  0  0
  -19.1572   18.5360  -13.7475 C   0  0  0  0  0  0
  -23.0386   26.8483  -10.2341 H   0  0  0  0  0  0
  1  2  1  0  0  0
  2  3  1  0  0  0
  2  4  1  0  0  0
  4  5  1  0  0  0
  4 28  1  0  0  0
  5  6  2  0  0  0
  5  7  1  0  0  0
  7  8  1  0  0  0
  8  9  1  0  0  0
  9 10  2  0  0  0
  9 13  1  0  0  0
 10 11  1  0  0  0
 11 12  2  0  0  0
 12 13  1  0  0  0
 12 21  1  0  0  0
 13 14  1  0  0  0
 14 15  2  0  0  0
 14 20  1  0  0  0
 15 16  1  0  0  0
 15 17  1  0  0  0
 17 18  2  0  0  0
 18 19  1  0  0  0
 19 20  2  0  0  0
 21 22  2  0  0  0
 21 27  1  0  0  0
 22 23  1  0  0  0
 23 24  2  0  0  0
 24 25  1  0  0  0
 24 26  1  0  0  0
 26 27  2  0  0  0
M  END
>  <CHROM.0>
-55.95226361,-170.52532232,76.43583831,152.27313882,-30.17785453,-176.80285287
-36.82744315,-161.53905406

>  <CHROM.1>
106.57993487,-68.06778009,139.05667895,-144.91512705,-132.14649532,2.24904473
-22.00399093,21.70253887,-13.02879019,-2.02432031,0.01122450,-2.53614325

>  <Name>
F2964-2754

>  <RI>
1.96345e+07

>  <Rbt.Current_Directory>
/home/adria/Escritorio/rDock_CMTR_LC/2pxcA_model/inputs_sah

>  <Rbt.Executable>
rbdock ($Id: //depot/dev/client3/rdock/2013.1/src/exe/rbdock.cxx#4 $)

>  <Rbt.Library>
libRbt.so (2013.1, Build901 2013/11/27)

>  <Rbt.Parameter_File>
/home/adria/Escritorio/rDock_2013.1_src/data/scripts/dock.prm

>  <Rbt.Receptor>
sah_rdock.prm

>  <SCORE>
-65.8413

>  <SCORE.INTER>
-16.4646

>  <SCORE.INTER.CONST>
1

>  <SCORE.INTER.POLAR>
-2.27998

>  <SCORE.INTER.REPUL>
0.076754

>  <SCORE.INTER.ROT>
6

>  <SCORE.INTER.VDW>
-20.4964

>  <SCORE.INTER.norm>
-0.6098

>  <SCORE.INTRA>
-46.3011

>  <SCORE.INTRA.DIHEDRAL>
-0.423541

>  <SCORE.INTRA.DIHEDRAL.0>
10.0861

>  <SCORE.INTRA.POLAR>
0

>  <SCORE.INTRA.POLAR.0>
0

>  <SCORE.INTRA.REPUL>
0

>  <SCORE.INTRA.REPUL.0>
0

>  <SCORE.INTRA.VDW>
-46.0894

>  <SCORE.INTRA.VDW.0>
43.0757

>  <SCORE.INTRA.norm>
-1.71486

>  <SCORE.RESTR>
0

>  <SCORE.RESTR.CAVITY>
0

>  <SCORE.RESTR.norm>
0

>  <SCORE.SYSTEM>
-3.07558

>  <SCORE.SYSTEM.CONST>
0

>  <SCORE.SYSTEM.DIHEDRAL>
9.55682

>  <SCORE.SYSTEM.POLAR>
-3.77321

>  <SCORE.SYSTEM.VDW>
4.9749

>  <SCORE.SYSTEM.norm>
-0.11391

>  <SCORE.heavy>
27

>  <SCORE.norm>
-2.43857

$$$$
F2964-2754
  rDOCK(R)          3D
libRbt.so/2013.1/901 2013/11/27
 28 30  0  0  0  0  0  0  0  0999 V2000
  -23.4020   24.4435   -9.4368 C   0  0  0  0  0  0
  -21.9597   25.0655  -10.2708 C   0  0  0  0  0  0
  -20.9092   26.2421  -10.1982 C   0  0  0  0  0  0
  -21.1792   23.9065  -10.4683 N   0  0  0  0  0  0
  -21.2197   23.3694  -11.6974 C   0  0  0  0  0  0
  -20.6525   22.2778  -11.8515 O   0  0  0  0  0  0
  -21.7529   24.2109  -12.8949 C   0  0  0  0  0  0
  -23.4811   24.2128  -13.5755 S   0  0  0  0  0  0
  -24.5662   22.6969  -13.5268 C   0  0  0  0  0  0
  -25.7879   22.8997  -14.0177 N   0  0  0  0  0  0
  -26.5288   21.8179  -13.5834 C   0  0  0  0  0  0
  -25.7948   21.1875  -12.5699 C   0  0  0  0  0  0
  -24.5175   21.1634  -13.3191 N   0  0  0  0  0  0
  -23.6314   19.7137  -13.6268 C   0  0  0  0  0  0
  -23.9058   18.1852  -14.0112 C   0  0  0  0  0  0
  -25.1182   17.1012  -13.9989 C   0  0  0  0  0  0
  -22.9377   17.3803  -14.6860 C   0  0  0  0  0  0
  -21.7329   17.9434  -15.0373 C   0  0  0  0  0  0
  -21.4005   19.2101  -14.6306 C   0  0  0  0  0  0
  -22.2805   20.0640  -13.8937 C   0  0  0  0  0  0
  -25.8899   21.7426  -11.1367 C   0  0  0  0  0  0
  -25.1513   21.2192  -10.0796 C   0  0  0  0  0  0
  -25.2452   21.7763   -8.7898 C   0  0  0  0  0  0
  -26.1283   22.8262   -8.4891 C   0  0  0  0  0  0
  -26.3631   23.2416   -7.0675 C   0  0  0  0  0  0
  -26.8642   23.3823   -9.5364 C   0  0  0  0  0  0
  -26.7334   22.8548  -10.8321 C   0  0  0  0  0  0
  -20.7230   23.4571   -9.6960 H   0  0  0  0  0  0
  1  2  1  0  0  0
  2  3  1  0  0  0
  2  4  1  0  0  0
  4  5  1  0  0  0
  4 28  1  0  0  0
  5  6  2  0  0  0
  5  7  1  0  0  0
  7  8  1  0  0  0
  8  9  1  0  0  0
  9 10  2  0  0  0
  9 13  1  0  0  0
 10 11  1  0  0  0
 11 12  2  0  0  0
 12 13  1  0  0  0
 12 21  1  0  0  0
 13 14  1  0  0  0
 14 15  2  0  0  0
 14 20  1  0  0  0
 15 16  1  0  0  0
 15 17  1  0  0  0
 17 18  2  0  0  0
 18 19  1  0  0  0
 19 20  2  0  0  0
 21 22  2  0  0  0
 21 27  1  0  0  0
 22 23  1  0  0  0
 23 24  2  0  0  0
 24 25  1  0  0  0
 24 26  1  0  0  0
 26 27  2  0  0  0
M  END
>  <CHROM.0>
-61.16320011,65.76501326,72.21543432,65.32522070,-31.13721686,59.23370289
82.77167801,-162.61801094

>  <CHROM.1>
100.88715999,-95.29819839,-31.27202338,177.75901587,-177.04731214,-140.32283485
-23.82391292,22.02292787,-12.01070134,-1.67332995,-0.46582990,-2.47194317

>  <Name>
F2964-2754

>  <RI>
1.96345e+07

>  <Rbt.Current_Directory>
/home/adria/Escritorio/rDock_CMTR_LC/2pxcA_model/inputs_sah

>  <Rbt.Executable>
rbdock ($Id: //depot/dev/client3/rdock/2013.1/src/exe/rbdock.cxx#4 $)

>  <Rbt.Library>
libRbt.so (2013.1, Build901 2013/11/27)

>  <Rbt.Parameter_File>
/home/adria/Escritorio/rDock_2013.1_src/data/scripts/dock.prm

>  <Rbt.Receptor>
sah_rdock.prm

>  <SCORE>
-62.0214

>  <SCORE.INTER>
-8.94787

>  <SCORE.INTER.CONST>
1

>  <SCORE.INTER.POLAR>
-1.37638

>  <SCORE.INTER.REPUL>
0

>  <SCORE.INTER.ROT>
6

>  <SCORE.INTER.VDW>
-15.6682

>  <SCORE.INTER.norm>
-0.331403

>  <SCORE.INTRA>
-45.9549

>  <SCORE.INTRA.DIHEDRAL>
2.18402

>  <SCORE.INTRA.DIHEDRAL.0>
10.0861

>  <SCORE.INTRA.POLAR>
0

>  <SCORE.INTRA.POLAR.0>
0

>  <SCORE.INTRA.REPUL>
0

>  <SCORE.INTRA.REPUL.0>
0

>  <SCORE.INTRA.VDW>
-47.0469

>  <SCORE.INTRA.VDW.0>
43.0757

>  <SCORE.INTRA.norm>
-1.70203

>  <SCORE.RESTR>
0.239451

>  <SCORE.RESTR.CAVITY>
0.239451

>  <SCORE.RESTR.norm>
0.00886855

>  <SCORE.SYSTEM>
-7.3581

>  <SCORE.SYSTEM.CONST>
0

>  <SCORE.SYSTEM.DIHEDRAL>
5.61481

>  <SCORE.SYSTEM.POLAR>
-3.7094

>  <SCORE.SYSTEM.VDW>
2.44646

>  <SCORE.SYSTEM.norm>
-0.272522

>  <SCORE.heavy>
27

>  <SCORE.norm>
-2.29709

$$$$
F2964-2754
  rDOCK(R)          3D
libRbt.so/2013.1/901 2013/11/27
 28 30  0  0  0  0  0  0  0  0999 V2000
  -21.7965   25.4417  -11.6176 C   0  0  0  0  0  0
  -22.7851   24.1088  -12.2568 C   0  0  0  0  0  0
  -24.2847   23.7371  -12.5828 C   0  0  0  0  0  0
  -22.0621   23.6907  -13.3944 N   0  0  0  0  0  0
  -21.2386   22.6456  -13.2196 C   0  0  0  0  0  0
  -20.4953   22.3526  -14.1677 O   0  0  0  0  0  0
  -21.4030   21.7282  -11.9716 C   0  0  0  0  0  0
  -20.7726   19.9925  -11.7718 S   0  0  0  0  0  0
  -21.0272   18.6897  -13.0817 C   0  0  0  0  0  0
  -20.6682   17.4668  -12.6942 N   0  0  0  0  0  0
  -20.5893   16.7334  -13.8620 C   0  0  0  0  0  0
  -20.5801   17.6430  -14.9278 C   0  0  0  0  0  0
  -21.7288   18.4399  -14.4390 N   0  0  0  0  0  0
  -23.1469   18.7272  -15.3815 C   0  0  0  0  0  0
  -23.9112   18.1027  -16.6405 C   0  0  0  0  0  0
  -23.6292   17.1038  -17.8927 C   0  0  0  0  0  0
  -25.3144   18.2736  -16.8456 C   0  0  0  0  0  0
  -26.0407   18.9832  -15.9177 C   0  0  0  0  0  0
  -25.4193   19.6369  -14.8848 C   0  0  0  0  0  0
  -24.0110   19.5776  -14.6405 C   0  0  0  0  0  0
  -19.2444   18.2967  -15.3272 C   0  0  0  0  0  0
  -19.1139   19.6659  -15.5398 C   0  0  0  0  0  0
  -17.8667   20.2273  -15.8744 C   0  0  0  0  0  0
  -16.7212   19.4409  -16.0792 C   0  0  0  0  0  0
  -15.4730   20.0456  -16.6493 C   0  0  0  0  0  0
  -16.8212   18.0677  -15.8514 C   0  0  0  0  0  0
  -18.0565   17.5161  -15.4717 C   0  0  0  0  0  0
  -22.0840   24.2268  -14.2422 H   0  0  0  0  0  0
  1  2  1  0  0  0
  2  3  1  0  0  0
  2  4  1  0  0  0
  4  5  1  0  0  0
  4 28  1  0  0  0
  5  6  2  0  0  0
  5  7  1  0  0  0
  7  8  1  0  0  0
  8  9  1  0  0  0
  9 10  2  0  0  0
  9 13  1  0  0  0
 10 11  1  0  0  0
 11 12  2  0  0  0
 12 13  1  0  0  0
 12 21  1  0  0  0
 13 14  1  0  0  0
 14 15  2  0  0  0
 14 20  1  0  0  0
 15 16  1  0  0  0
 15 17  1  0  0  0
 17 18  2  0  0  0
 18 19  1  0  0  0
 19 20  2  0  0  0
 21 22  2  0  0  0
 21 27  1  0  0  0
 22 23  1  0  0  0
 23 24  2  0  0  0
 24 25  1  0  0  0
 24 26  1  0  0  0
 26 27  2  0  0  0
M  END
>  <CHROM.0>
-62.05330949,-73.79649292,-9.19438003,-61.75522016,-30.96475298,-58.36014073
83.55635751,-161.52226597

>  <CHROM.1>
96.29402330,159.84504667,-47.71078827,-171.53368148,-132.27932043,-159.01443526
-21.24868932,19.95790873,-14.39181955,-2.37603455,0.00669804,-2.57512567

>  <Name>
F2964-2754

>  <RI>
1.96345e+07

>  <Rbt.Current_Directory>
/home/adria/Escritorio/rDock_CMTR_LC/2pxcA_model/inputs_sah

>  <Rbt.Executable>
rbdock ($Id: //depot/dev/client3/rdock/2013.1/src/exe/rbdock.cxx#4 $)

>  <Rbt.Library>
libRbt.so (2013.1, Build901 2013/11/27)

>  <Rbt.Parameter_File>
/home/adria/Escritorio/rDock_2013.1_src/data/scripts/dock.prm

>  <Rbt.Receptor>
sah_rdock.prm

>  <SCORE>
-63.6164

>  <SCORE.INTER>
-8.57581

>  <SCORE.INTER.CONST>
1

>  <SCORE.INTER.POLAR>
-0.781742

>  <SCORE.INTER.REPUL>
0.223749

>  <SCORE.INTER.ROT>
6

>  <SCORE.INTER.VDW>
-18.4366

>  <SCORE.INTER.norm>
-0.317623

>  <SCORE.INTRA>
-47.8439

>  <SCORE.INTRA.DIHEDRAL>
-2.45002

>  <SCORE.INTRA.DIHEDRAL.0>
10.0861

>  <SCORE.INTRA.POLAR>
0

>  <SCORE.INTRA.POLAR.0>
0

>  <SCORE.INTRA.REPUL>
0

>  <SCORE.INTRA.REPUL.0>
0

>  <SCORE.INTRA.VDW>
-46.6189

>  <SCORE.INTRA.VDW.0>
43.0757

>  <SCORE.INTRA.norm>
-1.772

>  <SCORE.RESTR>
0

>  <SCORE.RESTR.CAVITY>
0

>  <SCORE.RESTR.norm>
0

>  <SCORE.SYSTEM>
-7.19668

>  <SCORE.SYSTEM.CONST>
0

>  <SCORE.SYSTEM.DIHEDRAL>
9.4419

>  <SCORE.SYSTEM.POLAR>
-4.62251

>  <SCORE.SYSTEM.REPUL>
0.0399268

>  <SCORE.SYSTEM.VDW>
3.59926

>  <SCORE.SYSTEM.norm>
-0.266544

>  <SCORE.heavy>
27

>  <SCORE.norm>
-2.35616

$$$$
F2964-2754
  rDOCK(R)          3D
libRbt.so/2013.1/901 2013/11/27
 28 30  0  0  0  0  0  0  0  0999 V2000
  -25.3239   20.7222  -18.2730 C   0  0  0  0  0  0
  -25.4262   19.7309  -16.8000 C   0  0  0  0  0  0
  -26.0717   19.7331  -15.3590 C   0  0  0  0  0  0
  -25.6861   18.4377  -17.3017 N   0  0  0  0  0  0
  -24.6405   17.5974  -17.3389 C   0  0  0  0  0  0
  -24.8170   16.5071  -17.9022 O   0  0  0  0  0  0
  -23.3639   17.9095  -16.5029 C   0  0  0  0  0  0
  -21.6706   18.3036  -17.1568 S   0  0  0  0  0  0
  -20.1278   18.0098  -16.1512 C   0  0  0  0  0  0
  -20.2913   17.1230  -15.1707 N   0  0  0  0  0  0
  -19.1971   17.2998  -14.3464 C   0  0  0  0  0  0
  -18.6012   18.5184  -14.6972 C   0  0  0  0  0  0
  -18.5994   18.2566  -16.1549 N   0  0  0  0  0  0
  -17.1688   18.3069  -17.1207 C   0  0  0  0  0  0
  -15.7178   18.9804  -17.1015 C   0  0  0  0  0  0
  -14.9272   20.2035  -16.3775 C   0  0  0  0  0  0
  -14.6019   18.4132  -17.7895 C   0  0  0  0  0  0
  -14.7737   17.2345  -18.4774 C   0  0  0  0  0  0
  -16.0182   16.6775  -18.6238 C   0  0  0  0  0  0
  -17.2028   17.2129  -18.0267 C   0  0  0  0  0  0
  -19.1748   19.8176  -14.1022 C   0  0  0  0  0  0
  -19.4892   19.9492  -12.7528 C   0  0  0  0  0  0
  -19.9834   21.1654  -12.2436 C   0  0  0  0  0  0
  -20.2498   22.2705  -13.0684 C   0  0  0  0  0  0
  -20.9808   23.4645  -12.5309 C   0  0  0  0  0  0
  -19.9231   22.1708  -14.4214 C   0  0  0  0  0  0
  -19.3859   20.9712  -14.9182 C   0  0  0  0  0  0
  -26.5743   18.2152  -17.7118 H   0  0  0  0  0  0
  1  2  1  0  0  0
  2  3  1  0  0  0
  2  4  1  0  0  0
  4  5  1  0  0  0
  4 28  1  0  0  0
  5  6  2  0  0  0
  5  7  1  0  0  0
  7  8  1  0  0  0
  8  9  1  0  0  0
  9 10  2  0  0  0
  9 13  1  0  0  0
 10 11  1  0  0  0
 11 12  2  0  0  0
 12 13  1  0  0  0
 12 21  1  0  0  0
 13 14  1  0  0  0
 14 15  2  0  0  0
 14 20  1  0  0  0
 15 16  1  0  0  0
 15 17  1  0  0  0
 17 18  2  0  0  0
 18 19  1  0  0  0
 19 20  2  0  0  0
 21 22  2  0  0  0
 21 27  1  0  0  0
 22 23  1  0  0  0
 23 24  2  0  0  0
 24 25  1  0  0  0
 24 26  1  0  0  0
 26 27  2  0  0  0
M  END
>  <CHROM.0>
-61.50986477,65.30944091,-46.16667568,-144.90464372,168.24534477,-57.19967888
83.78971538,-161.78743580

>  <CHROM.1>
101.97178695,-114.53827325,-155.59697267,21.04501447,45.94656373,156.18709100
-20.32734890,19.04220707,-16.03488999,3.08594820,-0.03358939,0.81825197

>  <Name>
F2964-2754

>  <RI>
1.96345e+07

>  <Rbt.Current_Directory>
/home/adria/Escritorio/rDock_CMTR_LC/2pxcA_model/inputs_sah

>  <Rbt.Executable>
rbdock ($Id: //depot/dev/client3/rdock/2013.1/src/exe/rbdock.cxx#4 $)

>  <Rbt.Library>
libRbt.so (2013.1, Build901 2013/11/27)

>  <Rbt.Parameter_File>
/home/adria/Escritorio/rDock_2013.1_src/data/scripts/dock.prm

>  <Rbt.Receptor>
sah_rdock.prm

>  <SCORE>
-59.8342

>  <SCORE.INTER>
-15.8374

>  <SCORE.INTER.CONST>
1

>  <SCORE.INTER.POLAR>
0

>  <SCORE.INTER.REPUL>
0

>  <SCORE.INTER.ROT>
6

>  <SCORE.INTER.VDW>
-27.2374

>  <SCORE.INTER.norm>
-0.586572

>  <SCORE.INTRA>
-45.2217

>  <SCORE.INTRA.DIHEDRAL>
1.33813

>  <SCORE.INTRA.DIHEDRAL.0>
10.0861

>  <SCORE.INTRA.POLAR>
0

>  <SCORE.INTRA.POLAR.0>
0

>  <SCORE.INTRA.REPUL>
0

>  <SCORE.INTRA.REPUL.0>
0

>  <SCORE.INTRA.VDW>
-45.8908

>  <SCORE.INTRA.VDW.0>
43.0757

>  <SCORE.INTRA.norm>
-1.67488

>  <SCORE.RESTR>
0

>  <SCORE.RESTR.CAVITY>
0

>  <SCORE.RESTR.norm>
0

>  <SCORE.SYSTEM>
1.22494

>  <SCORE.SYSTEM.CONST>
0

>  <SCORE.SYSTEM.DIHEDRAL>
7.52451

>  <SCORE.SYSTEM.POLAR>
-3.60355

>  <SCORE.SYSTEM.VDW>
9.71475

>  <SCORE.SYSTEM.norm>
0.0453681

>  <SCORE.heavy>
27

>  <SCORE.norm>
-2.21608

$$$$
F2964-2754
  rDOCK(R)          3D
libRbt.so/2013.1/901 2013/11/27
 28 30  0  0  0  0  0  0  0  0999 V2000
  -16.7676   17.0156  -17.9044 C   0  0  0  0  0  0
  -17.4701   18.3179  -16.9179 C   0  0  0  0  0  0
  -17.2272   19.8267  -16.5204 C   0  0  0  0  0  0
  -18.8443   18.2521  -17.2322 N   0  0  0  0  0  0
  -19.6214   17.6037  -16.3509 C   0  0  0  0  0  0
  -20.8030   17.4166  -16.6764 O   0  0  0  0  0  0
  -19.0970   17.3268  -14.9105 C   0  0  0  0  0  0
  -19.0775   18.5146  -13.4826 S   0  0  0  0  0  0
  -20.6471   19.1402  -12.6935 C   0  0  0  0  0  0
  -21.0421   18.4177  -11.6464 N   0  0  0  0  0  0
  -22.3529   18.7951  -11.4291 C   0  0  0  0  0  0
  -22.7848   19.4841  -12.5702 C   0  0  0  0  0  0
  -21.5962   20.3629  -12.6590 N   0  0  0  0  0  0
  -21.6967   22.0867  -12.6780 C   0  0  0  0  0  0
  -22.8108   23.2347  -12.6870 C   0  0  0  0  0  0
  -24.3935   23.4251  -13.0095 C   0  0  0  0  0  0
  -22.5581   24.5500  -12.1904 C   0  0  0  0  0  0
  -21.3191   24.8364  -11.6661 C   0  0  0  0  0  0
  -20.2943   23.9283  -11.7399 C   0  0  0  0  0  0
  -20.4374   22.6119  -12.2814 C   0  0  0  0  0  0
  -23.2896   18.6698  -13.7758 C   0  0  0  0  0  0
  -23.9330   17.4437  -13.6357 C   0  0  0  0  0  0
  -24.4063   16.7456  -14.7632 C   0  0  0  0  0  0
  -24.1946   17.2056  -16.0732 C   0  0  0  0  0  0
  -24.5131   16.3314  -17.2492 C   0  0  0  0  0  0
  -23.5707   18.4428  -16.2392 C   0  0  0  0  0  0
  -23.1412   19.1597  -15.1096 C   0  0  0  0  0  0
  -19.1835   18.5710  -18.1209 H   0  0  0  0  0  0
  1  2  1  0  0  0
  2  3  1  0  0  0
  2  4  1  0  0  0
  4  5  1  0  0  0
  4 28  1  0  0  0
  5  6  2  0  0  0
  5  7  1  0  0  0
  7  8  1  0  0  0
  8  9  1  0  0  0
  9 10  2  0  0  0
  9 13  1  0  0  0
 10 11  1  0  0  0
 11 12  2  0  0  0
 12 13  1  0  0  0
 12 21  1  0  0  0
 13 14  1  0  0  0
 14 15  2  0  0  0
 14 20  1  0  0  0
 15 16  1  0  0  0
 15 17  1  0  0  0
 17 18  2  0  0  0
 18 19  1  0  0  0
 19 20  2  0  0  0
 21 22  2  0  0  0
 21 27  1  0  0  0
 22 23  1  0  0  0
 23 24  2  0  0  0
 24 25  1  0  0  0
 24 26  1  0  0  0
 26 27  2  0  0  0
M  END
>  <CHROM.0>
-62.71042277,-73.25285854,72.19395781,64.99492110,168.62762181,-178.19211566
82.69474421,-163.74662664

>  <CHROM.1>
99.16668787,80.90957329,66.45193564,93.09031436,31.55308828,177.06329209
-21.23451741,19.50299720,-14.26542950,-1.23141480,0.20672852,0.60068019

>  <Name>
F2964-2754

>  <RI>
1.96345e+07

>  <Rbt.Current_Directory>
/home/adria/Escritorio/rDock_CMTR_LC/2pxcA_model/inputs_sah

>  <Rbt.Executable>
rbdock ($Id: //depot/dev/client3/rdock/2013.1/src/exe/rbdock.cxx#4 $)

>  <Rbt.Library>
libRbt.so (2013.1, Build901 2013/11/27)

>  <Rbt.Parameter_File>
/home/adria/Escritorio/rDock_2013.1_src/data/scripts/dock.prm

>  <Rbt.Receptor>
sah_rdock.prm

>  <SCORE>
-62.1913

>  <SCORE.INTER>
-12.6201

>  <SCORE.INTER.CONST>
1

>  <SCORE.INTER.POLAR>
-0.843654

>  <SCORE.INTER.REPUL>
0.0538601

>  <SCORE.INTER.ROT>
6

>  <SCORE.INTER.VDW>
-21.421

>  <SCORE.INTER.norm>
-0.467412

>  <SCORE.INTRA>
-46.7269

>  <SCORE.INTRA.DIHEDRAL>
0.41719

>  <SCORE.INTRA.DIHEDRAL.0>
10.0861

>  <SCORE.INTRA.POLAR>
0

>  <SCORE.INTRA.POLAR.0>
0

>  <SCORE.INTRA.REPUL>
0

>  <SCORE.INTRA.REPUL.0>
0

>  <SCORE.INTRA.VDW>
-46.9354

>  <SCORE.INTRA.VDW.0>
43.0757

>  <SCORE.INTRA.norm>
-1.73062

>  <SCORE.RESTR>
0

>  <SCORE.RESTR.CAVITY>
0

>  <SCORE.RESTR.norm>
0

>  <SCORE.SYSTEM>
-2.84429

>  <SCORE.SYSTEM.CONST>
0

>  <SCORE.SYSTEM.DIHEDRAL>
3.47775

>  <SCORE.SYSTEM.POLAR>
-3.94549

>  <SCORE.SYSTEM.REPUL>
0.038984

>  <SCORE.SYSTEM.VDW>
8.63658

>  <SCORE.SYSTEM.norm>
-0.105344

>  <SCORE.heavy>
27

>  <SCORE.norm>
-2.30338

$$$$
F2964-2754
  rDOCK(R)          3D
libRbt.so/2013.1/901 2013/11/27
 28 30  0  0  0  0  0  0  0  0999 V2000
  -15.9521   19.1619  -16.2147 C   0  0  0  0  0  0
  -17.6697   19.6137  -16.1234 C   0  0  0  0  0  0
  -18.8246   20.2397  -16.9997 C   0  0  0  0  0  0
  -18.2634   18.4927  -15.5049 N   0  0  0  0  0  0
  -18.5103   18.6049  -14.1907 C   0  0  0  0  0  0
  -18.9024   17.5852  -13.6046 O   0  0  0  0  0  0
  -18.5216   20.0110  -13.5204 C   0  0  0  0  0  0
  -20.0035   20.9305  -12.8813 S   0  0  0  0  0  0
  -21.3372   20.0892  -11.8856 C   0  0  0  0  0  0
  -21.0834   18.8065  -11.6309 N   0  0  0  0  0  0
  -22.2923   18.2807  -11.2188 C   0  0  0  0  0  0
  -23.2898   19.2007  -11.5682 C   0  0  0  0  0  0
  -22.5862   20.3825  -11.0191 N   0  0  0  0  0  0
  -23.2853   21.4336   -9.8409 C   0  0  0  0  0  0
  -23.3183   22.9905   -9.4747 C   0  0  0  0  0  0
  -22.4867   24.3546   -9.7795 C   0  0  0  0  0  0
  -24.3959   23.5829   -8.7479 C   0  0  0  0  0  0
  -25.4545   22.7922   -8.3657 C   0  0  0  0  0  0
  -25.4237   21.4338   -8.5502 C   0  0  0  0  0  0
  -24.3554   20.7459   -9.2077 C   0  0  0  0  0  0
  -23.8450   19.1758  -13.0042 C   0  0  0  0  0  0
  -24.7047   20.1553  -13.4927 C   0  0  0  0  0  0
  -25.1654   20.1113  -14.8225 C   0  0  0  0  0  0
  -24.8459   19.0557  -15.6921 C   0  0  0  0  0  0
  -25.5309   18.9278  -17.0200 C   0  0  0  0  0  0
  -23.9686   18.0725  -15.2328 C   0  0  0  0  0  0
  -23.4729   18.1442  -13.9199 C   0  0  0  0  0  0
  -18.3771   17.6306  -16.0054 H   0  0  0  0  0  0
  1  2  1  0  0  0
  2  3  1  0  0  0
  2  4  1  0  0  0
  4  5  1  0  0  0
  4 28  1  0  0  0
  5  6  2  0  0  0
  5  7  1  0  0  0
  7  8  1  0  0  0
  8  9  1  0  0  0
  9 10  2  0  0  0
  9 13  1  0  0  0
 10 11  1  0  0  0
 11 12  2  0  0  0
 12 13  1  0  0  0
 12 21  1  0  0  0
 13 14  1  0  0  0
 14 15  2  0  0  0
 14 20  1  0  0  0
 15 16  1  0  0  0
 15 17  1  0  0  0
 17 18  2  0  0  0
 18 19  1  0  0  0
 19 20  2  0  0  0
 21 22  2  0  0  0
 21 27  1  0  0  0
 22 23  1  0  0  0
 23 24  2  0  0  0
 24 25  1  0  0  0
 24 26  1  0  0  0
 26 27  2  0  0  0
M  END
>  <CHROM.0>
-57.89530852,-168.99715474,72.46952744,65.83736640,-32.30464755,64.54772411
82.08922618,-159.06970039

>  <CHROM.1>
99.83562281,109.02406208,43.51985312,3.19506722,-171.41634151,37.34072025
-21.92633607,20.10969493,-12.80588798,-0.84036801,0.05911121,1.05394800

>  <Name>
F2964-2754

>  <RI>
1.96345e+07

>  <Rbt.Current_Directory>
/home/adria/Escritorio/rDock_CMTR_LC/2pxcA_model/inputs_sah

>  <Rbt.Executable>
rbdock ($Id: //depot/dev/client3/rdock/2013.1/src/exe/rbdock.cxx#4 $)

>  <Rbt.Library>
libRbt.so (2013.1, Build901 2013/11/27)

>  <Rbt.Parameter_File>
/home/adria/Escritorio/rDock_2013.1_src/data/scripts/dock.prm

>  <Rbt.Receptor>
sah_rdock.prm

>  <SCORE>
-62.1531

>  <SCORE.INTER>
-10.1866

>  <SCORE.INTER.CONST>
1

>  <SCORE.INTER.POLAR>
-0.804741

>  <SCORE.INTER.REPUL>
0.0360911

>  <SCORE.INTER.ROT>
6

>  <SCORE.INTER.VDW>
-19.0309

>  <SCORE.INTER.norm>
-0.37728

>  <SCORE.INTRA>
-45.5919

>  <SCORE.INTRA.DIHEDRAL>
0.216262

>  <SCORE.INTRA.DIHEDRAL.0>
10.0861

>  <SCORE.INTRA.POLAR>
0

>  <SCORE.INTRA.POLAR.0>
0

>  <SCORE.INTRA.REPUL>
0

>  <SCORE.INTRA.REPUL.0>
0

>  <SCORE.INTRA.VDW>
-45.7001

>  <SCORE.INTRA.VDW.0>
43.0757

>  <SCORE.INTRA.norm>
-1.68859

>  <SCORE.RESTR>
0

>  <SCORE.RESTR.CAVITY>
0

>  <SCORE.RESTR.norm>
0

>  <SCORE.SYSTEM>
-6.37461

>  <SCORE.SYSTEM.CONST>
0

>  <SCORE.SYSTEM.DIHEDRAL>
6.04597

>  <SCORE.SYSTEM.POLAR>
-3.68925

>  <SCORE.SYSTEM.VDW>
3.14586

>  <SCORE.SYSTEM.norm>
-0.236097

>  <SCORE.heavy>
27

>  <SCORE.norm>
-2.30197

$$$$
F2964-2754
  rDOCK(R)          3D
libRbt.so/2013.1/901 2013/11/27
 28 30  0  0  0  0  0  0  0  0999 V2000
  -19.1009   18.0334  -15.9148 C   0  0  0  0  0  0
  -20.1801   18.1828  -14.5091 C   0  0  0  0  0  0
  -21.2255   17.3506  -13.6678 C   0  0  0  0  0  0
  -19.3614   18.8033  -13.5414 N   0  0  0  0  0  0
  -19.5141   20.1291  -13.4010 C   0  0  0  0  0  0
  -18.7103   20.7105  -12.6573 O   0  0  0  0  0  0
  -20.7858   20.8282  -13.9669 C   0  0  0  0  0  0
  -22.4863   20.8257  -13.2198 S   0  0  0  0  0  0
  -23.3270   22.3958  -12.6664 C   0  0  0  0  0  0
  -23.4749   23.2929  -13.6400 N   0  0  0  0  0  0
  -23.7712   24.4755  -12.9906 C   0  0  0  0  0  0
  -23.4557   24.3001  -11.6367 C   0  0  0  0  0  0
  -24.1488   22.9984  -11.5009 N   0  0  0  0  0  0
  -25.3803   22.7031  -10.3270 C   0  0  0  0  0  0
  -26.2310   21.4792   -9.7460 C   0  0  0  0  0  0
  -26.6438   19.9566  -10.1417 C   0  0  0  0  0  0
  -26.7979   21.4956   -8.4350 C   0  0  0  0  0  0
  -26.5890   22.5938   -7.6336 C   0  0  0  0  0  0
  -25.9689   23.7155   -8.1209 C   0  0  0  0  0  0
  -25.4295   23.8139   -9.4423 C   0  0  0  0  0  0
  -21.9959   24.4980  -11.1885 C   0  0  0  0  0  0
  -20.9956   23.5697  -11.4615 C   0  0  0  0  0  0
  -19.6665   23.8039  -11.0598 C   0  0  0  0  0  0
  -19.2974   24.9336  -10.3115 C   0  0  0  0  0  0
  -17.9261   25.0374   -9.7134 C   0  0  0  0  0  0
  -20.2780   25.8896  -10.0434 C   0  0  0  0  0  0
  -21.5943   25.6756  -10.4863 C   0  0  0  0  0  0
  -18.6324   18.2905  -13.0807 H   0  0  0  0  0  0
  1  2  1  0  0  0
  2  3  1  0  0  0
  2  4  1  0  0  0
  4  5  1  0  0  0
  4 28  1  0  0  0
  5  6  2  0  0  0
  5  7  1  0  0  0
  7  8  1  0  0  0
  8  9  1  0  0  0
  9 10  2  0  0  0
  9 13  1  0  0  0
 10 11  1  0  0  0
 11 12  2  0  0  0
 12 13  1  0  0  0
 12 21  1  0  0  0
 13 14  1  0  0  0
 14 15  2  0  0  0
 14 20  1  0  0  0
 15 16  1  0  0  0
 15 17  1  0  0  0
 17 18  2  0  0  0
 18 19  1  0  0  0
 19 20  2  0  0  0
 21 22  2  0  0  0
 21 27  1  0  0  0
 22 23  1  0  0  0
 23 24  2  0  0  0
 24 25  1  0  0  0
 24 26  1  0  0  0
 26 27  2  0  0  0
M  END
>  <CHROM.0>
-179.84396050,64.40337323,76.55112276,64.65027973,39.92206120,-57.92890215
-36.85979638,-160.62882220

>  <CHROM.1>
98.86884888,77.13157283,118.10063189,58.50824733,-74.16082619,9.19739606
-22.31323403,22.11503730,-11.67020384,0.75142690,-0.34913217,-2.61190599

>  <Name>
F2964-2754

>  <RI>
1.96345e+07

>  <Rbt.Current_Directory>
/home/adria/Escritorio/rDock_CMTR_LC/2pxcA_model/inputs_sah

>  <Rbt.Executable>
rbdock ($Id: //depot/dev/client3/rdock/2013.1/src/exe/rbdock.cxx#4 $)

>  <Rbt.Library>
libRbt.so (2013.1, Build901 2013/11/27)

>  <Rbt.Parameter_File>
/home/adria/Escritorio/rDock_2013.1_src/data/scripts/dock.prm

>  <Rbt.Receptor>
sah_rdock.prm

>  <SCORE>
-46.9087

>  <SCORE.INTER>
-9.89844

>  <SCORE.INTER.CONST>
1

>  <SCORE.INTER.POLAR>
0

>  <SCORE.INTER.REPUL>
0.00755746

>  <SCORE.INTER.ROT>
6

>  <SCORE.INTER.VDW>
-21.3362

>  <SCORE.INTER.norm>
-0.366609

>  <SCORE.INTRA>
-42.7014

>  <SCORE.INTRA.DIHEDRAL>
6.26239

>  <SCORE.INTRA.DIHEDRAL.0>
10.0861

>  <SCORE.INTRA.POLAR>
0

>  <SCORE.INTRA.POLAR.0>
0

>  <SCORE.INTRA.REPUL>
0

>  <SCORE.INTRA.REPUL.0>
0

>  <SCORE.INTRA.VDW>
-45.8326

>  <SCORE.INTRA.VDW.0>
43.0757

>  <SCORE.INTRA.norm>
-1.58153

>  <SCORE.RESTR>
0.560067

>  <SCORE.RESTR.CAVITY>
0.560067

>  <SCORE.RESTR.norm>
0.0207432

>  <SCORE.SYSTEM>
5.13101

>  <SCORE.SYSTEM.CONST>
0

>  <SCORE.SYSTEM.DIHEDRAL>
4.35522

>  <SCORE.SYSTEM.POLAR>
-3.39026

>  <SCORE.SYSTEM.VDW>
14.4803

>  <SCORE.SYSTEM.norm>
0.190037

>  <SCORE.heavy>
27

>  <SCORE.norm>
-1.73736

$$$$
F2964-2754
  rDOCK(R)          3D
libRbt.so/2013.1/901 2013/11/27
 28 30  0  0  0  0  0  0  0  0999 V2000
  -19.4271   24.7793  -10.5233 C   0  0  0  0  0  0
  -21.0306   24.1995  -11.0287 C   0  0  0  0  0  0
  -22.5675   24.4596  -10.7770 C   0  0  0  0  0  0
  -20.9120   24.1127  -12.4323 N   0  0  0  0  0  0
  -20.7869   22.8765  -12.9392 C   0  0  0  0  0  0
  -20.5439   22.7895  -14.1518 O   0  0  0  0  0  0
  -21.1678   21.6398  -12.0720 C   0  0  0  0  0  0
  -20.3012   19.9976  -12.0290 S   0  0  0  0  0  0
  -20.5295   18.7221  -13.3703 C   0  0  0  0  0  0
  -20.1338   17.5002  -13.0168 N   0  0  0  0  0  0
  -20.0435   16.7994  -14.2037 C   0  0  0  0  0  0
  -20.0675   17.7359  -15.2457 C   0  0  0  0  0  0
  -21.2341   18.4877  -14.7288 N   0  0  0  0  0  0
  -22.6666   18.7594  -15.6538 C   0  0  0  0  0  0
  -24.1308   19.3759  -15.4657 C   0  0  0  0  0  0
  -25.1691   19.7667  -14.2764 C   0  0  0  0  0  0
  -24.8834   19.9069  -16.5575 C   0  0  0  0  0  0
  -24.3229   19.9080  -17.8136 C   0  0  0  0  0  0
  -23.1231   19.2882  -18.0518 C   0  0  0  0  0  0
  -22.3319   18.6714  -17.0319 C   0  0  0  0  0  0
  -18.7534   18.4366  -15.6373 C   0  0  0  0  0  0
  -17.5590   17.7447  -15.8148 C   0  0  0  0  0  0
  -16.3860   18.4201  -16.2028 C   0  0  0  0  0  0
  -16.3410   19.8151  -16.3591 C   0  0  0  0  0  0
  -15.0311   20.5189  -16.5528 C   0  0  0  0  0  0
  -17.5305   20.5291  -16.2075 C   0  0  0  0  0  0
  -18.7101   19.8462  -15.8660 C   0  0  0  0  0  0
  -20.8093   24.9397  -12.9908 H   0  0  0  0  0  0
  1  2  1  0  0  0
  2  3  1  0  0  0
  2  4  1  0  0  0
  4  5  1  0  0  0
  4 28  1  0  0  0
  5  6  2  0  0  0
  5  7  1  0  0  0
  7  8  1  0  0  0
  8  9  1  0  0  0
  9 10  2  0  0  0
  9 13  1  0  0  0
 10 11  1  0  0  0
 11 12  2  0  0  0
 12 13  1  0  0  0
 12 21  1  0  0  0
 13 14  1  0  0  0
 14 15  2  0  0  0
 14 20  1  0  0  0
 15 16  1  0  0  0
 15 17  1  0  0  0
 17 18  2  0  0  0
 18 19  1  0  0  0
 19 20  2  0  0  0
 21 22  2  0  0  0
 21 27  1  0  0  0
 22 23  1  0  0  0
 23 24  2  0  0  0
 24 25  1  0  0  0
 24 26  1  0  0  0
 26 27  2  0  0  0
M  END
>  <CHROM.0>
-178.74025276,-169.28781051,-47.91011199,62.07401396,168.33219212,179.32658777
82.44638390,-165.08844166

>  <CHROM.1>
104.82388030,-142.50481694,-77.51482171,-163.15708881,46.42372631,-5.75828913
-20.57156061,20.27598104,-14.40066969,-1.89890352,0.02996631,-2.38746583

>  <Name>
F2964-2754

>  <RI>
1.96345e+07

>  <Rbt.Current_Directory>
/home/adria/Escritorio/rDock_CMTR_LC/2pxcA_model/inputs_sah

>  <Rbt.Executable>
rbdock ($Id: //depot/dev/client3/rdock/2013.1/src/exe/rbdock.cxx#4 $)

>  <Rbt.Library>
libRbt.so (2013.1, Build901 2013/11/27)

>  <Rbt.Parameter_File>
/home/adria/Escritorio/rDock_2013.1_src/data/scripts/dock.prm

>  <Rbt.Receptor>
sah_rdock.prm

>  <SCORE>
-63.8483

>  <SCORE.INTER>
-15.9035

>  <SCORE.INTER.CONST>
1

>  <SCORE.INTER.POLAR>
-0.824621

>  <SCORE.INTER.REPUL>
0.0445245

>  <SCORE.INTER.ROT>
6

>  <SCORE.INTER.VDW>
-24.7224

>  <SCORE.INTER.norm>
-0.589018

>  <SCORE.INTRA>
-46.9655

>  <SCORE.INTRA.DIHEDRAL>
-2.22523

>  <SCORE.INTRA.DIHEDRAL.0>
10.0861

>  <SCORE.INTRA.POLAR>
0

>  <SCORE.INTRA.POLAR.0>
0

>  <SCORE.INTRA.REPUL>
0

>  <SCORE.INTRA.REPUL.0>
0

>  <SCORE.INTRA.VDW>
-45.8529

>  <SCORE.INTRA.VDW.0>
43.0757

>  <SCORE.INTRA.norm>
-1.73946

>  <SCORE.RESTR>
0

>  <SCORE.RESTR.CAVITY>
0

>  <SCORE.RESTR.norm>
0

>  <SCORE.SYSTEM>
-0.979229

>  <SCORE.SYSTEM.CONST>
0

>  <SCORE.SYSTEM.DIHEDRAL>
3.00607

>  <SCORE.SYSTEM.POLAR>
-3.51021

>  <SCORE.SYSTEM.VDW>
9.45247

>  <SCORE.SYSTEM.norm>
-0.0362677

>  <SCORE.heavy>
27

>  <SCORE.norm>
-2.36475

$$$$
F2964-2754
  rDOCK(R)          3D
libRbt.so/2013.1/901 2013/11/27
 28 30  0  0  0  0  0  0  0  0999 V2000
  -18.1415   17.7478  -17.4796 C   0  0  0  0  0  0
  -19.6004   18.3006  -16.6260 C   0  0  0  0  0  0
  -21.0281   18.9157  -16.9031 C   0  0  0  0  0  0
  -19.8352   17.2690  -15.6921 N   0  0  0  0  0  0
  -19.2033   17.3839  -14.5138 C   0  0  0  0  0  0
  -19.2876   16.4221  -13.7360 O   0  0  0  0  0  0
  -18.6065   18.7570  -14.0838 C   0  0  0  0  0  0
  -19.5286   20.3539  -13.8613 S   0  0  0  0  0  0
  -20.7143   20.6240  -12.4475 C   0  0  0  0  0  0
  -20.8658   19.5551  -11.6672 N   0  0  0  0  0  0
  -22.0024   19.8148  -10.9264 C   0  0  0  0  0  0
  -22.6670   20.8845  -11.5407 C   0  0  0  0  0  0
  -21.4632   21.7367  -11.6741 N   0  0  0  0  0  0
  -21.3644   23.3371  -11.0332 C   0  0  0  0  0  0
  -22.2175   24.3266  -10.1100 C   0  0  0  0  0  0
  -23.7364   24.5073   -9.5573 C   0  0  0  0  0  0
  -21.6159   25.3852   -9.3631 C   0  0  0  0  0  0
  -20.2515   25.5492   -9.4221 C   0  0  0  0  0  0
  -19.4880   24.8062  -10.2855 C   0  0  0  0  0  0
  -20.0141   23.7707  -11.1207 C   0  0  0  0  0  0
  -23.5938   20.5887  -12.7342 C   0  0  0  0  0  0
  -23.5461   19.3909  -13.4415 C   0  0  0  0  0  0
  -24.4328   19.1485  -14.5081 C   0  0  0  0  0  0
  -25.3494   20.1140  -14.9554 C   0  0  0  0  0  0
  -26.1168   19.9057  -16.2268 C   0  0  0  0  0  0
  -25.4312   21.3149  -14.2494 C   0  0  0  0  0  0
  -24.5772   21.5356  -13.1556 C   0  0  0  0  0  0
  -20.3499   16.4481  -15.9525 H   0  0  0  0  0  0
  1  2  1  0  0  0
  2  3  1  0  0  0
  2  4  1  0  0  0
  4  5  1  0  0  0
  4 28  1  0  0  0
  5  6  2  0  0  0
  5  7  1  0  0  0
  7  8  1  0  0  0
  8  9  1  0  0  0
  9 10  2  0  0  0
  9 13  1  0  0  0
 10 11  1  0  0  0
 11 12  2  0  0  0
 12 13  1  0  0  0
 12 21  1  0  0  0
 13 14  1  0  0  0
 14 15  2  0  0  0
 14 20  1  0  0  0
 15 16  1  0  0  0
 15 17  1  0  0  0
 17 18  2  0  0  0
 18 19  1  0  0  0
 19 20  2  0  0  0
 21 22  2  0  0  0
 21 27  1  0  0  0
 22 23  1  0  0  0
 23 24  2  0  0  0
 24 25  1  0  0  0
 24 26  1  0  0  0
 26 27  2  0  0  0
M  END
>  <CHROM.0>
-59.04082863,-164.93300183,-164.57043017,66.03763481,-29.97838558,-54.82954038
83.76676492,-165.48415165

>  <CHROM.1>
87.49988779,59.26180233,70.54283791,-2.57779623,-16.78493911,-172.38424372
-21.51406834,20.69527545,-13.12371136,-1.38294019,-0.14824150,0.75338017

>  <Name>
F2964-2754

>  <RI>
1.96345e+07

>  <Rbt.Current_Directory>
/home/adria/Escritorio/rDock_CMTR_LC/2pxcA_model/inputs_sah

>  <Rbt.Executable>
rbdock ($Id: //depot/dev/client3/rdock/2013.1/src/exe/rbdock.cxx#4 $)

>  <Rbt.Library>
libRbt.so (2013.1, Build901 2013/11/27)

>  <Rbt.Parameter_File>
/home/adria/Escritorio/rDock_2013.1_src/data/scripts/dock.prm

>  <Rbt.Receptor>
sah_rdock.prm

>  <SCORE>
-64.9639

>  <SCORE.INTER>
-12.4981

>  <SCORE.INTER.CONST>
1

>  <SCORE.INTER.POLAR>
-0.824621

>  <SCORE.INTER.REPUL>
0.0299639

>  <SCORE.INTER.ROT>
6

>  <SCORE.INTER.VDW>
-21.2442

>  <SCORE.INTER.norm>
-0.462891

>  <SCORE.INTRA>
-46.4665

>  <SCORE.INTRA.DIHEDRAL>
-0.244425

>  <SCORE.INTRA.DIHEDRAL.0>
10.0861

>  <SCORE.INTRA.POLAR>
0

>  <SCORE.INTRA.POLAR.0>
0

>  <SCORE.INTRA.REPUL>
0

>  <SCORE.INTRA.REPUL.0>
0

>  <SCORE.INTRA.VDW>
-46.3443

>  <SCORE.INTRA.VDW.0>
43.0757

>  <SCORE.INTRA.norm>
-1.72098

>  <SCORE.RESTR>
0.016789

>  <SCORE.RESTR.CAVITY>
0.016789

>  <SCORE.RESTR.norm>
0.000621815

>  <SCORE.SYSTEM>
-6.01605

>  <SCORE.SYSTEM.CONST>
0

>  <SCORE.SYSTEM.DIHEDRAL>
6.99672

>  <SCORE.SYSTEM.POLAR>
-3.65159

>  <SCORE.SYSTEM.VDW>
2.90099

>  <SCORE.SYSTEM.norm>
-0.222817

>  <SCORE.heavy>
27

>  <SCORE.norm>
-2.40607

$$$$
F2964-2754
  rDOCK(R)          3D
libRbt.so/2013.1/901 2013/11/27
 28 30  0  0  0  0  0  0  0  0999 V2000
  -20.2092   19.0912  -16.5628 C   0  0  0  0  0  0
  -21.9843   18.9834  -16.5753 C   0  0  0  0  0  0
  -23.2149   19.0794  -17.5600 C   0  0  0  0  0  0
  -22.2406   17.8321  -15.8004 N   0  0  0  0  0  0
  -22.7023   18.0466  -14.5588 C   0  0  0  0  0  0
  -22.8018   17.0569  -13.8187 O   0  0  0  0  0  0
  -23.2952   19.4365  -14.1805 C   0  0  0  0  0  0
  -22.4555   20.7824  -13.2145 S   0  0  0  0  0  0
  -23.3521   22.3306  -12.6882 C   0  0  0  0  0  0
  -23.5063   23.2173  -13.6703 N   0  0  0  0  0  0
  -23.8497   24.3945  -13.0347 C   0  0  0  0  0  0
  -23.5566   24.2363  -11.6736 C   0  0  0  0  0  0
  -24.2144   22.9159  -11.5433 N   0  0  0  0  0  0
  -25.4601   22.5919  -10.3923 C   0  0  0  0  0  0
  -26.1785   21.3380   -9.7061 C   0  0  0  0  0  0
  -26.3722   19.7397   -9.9369 C   0  0  0  0  0  0
  -26.8133   21.4242   -8.4293 C   0  0  0  0  0  0
  -26.7896   22.6224   -7.7543 C   0  0  0  0  0  0
  -26.2917   23.7555   -8.3446 C   0  0  0  0  0  0
  -25.6982   23.7774   -9.6462 C   0  0  0  0  0  0
  -22.1124   24.4792  -11.1977 C   0  0  0  0  0  0
  -21.7145   25.6633  -10.5839 C   0  0  0  0  0  0
  -20.3904   25.8328  -10.1360 C   0  0  0  0  0  0
  -19.3980   24.8614  -10.3454 C   0  0  0  0  0  0
  -17.9585   25.1674  -10.0569 C   0  0  0  0  0  0
  -19.7766   23.6568  -10.9396 C   0  0  0  0  0  0
  -21.1097   23.4719  -11.3432 C   0  0  0  0  0  0
  -21.9758   16.9222  -16.1298 H   0  0  0  0  0  0
  1  2  1  0  0  0
  2  3  1  0  0  0
  2  4  1  0  0  0
  4  5  1  0  0  0
  4 28  1  0  0  0
  5  6  2  0  0  0
  5  7  1  0  0  0
  7  8  1  0  0  0
  8  9  1  0  0  0
  9 10  2  0  0  0
  9 13  1  0  0  0
 10 11  1  0  0  0
 11 12  2  0  0  0
 12 13  1  0  0  0
 12 21  1  0  0  0
 13 14  1  0  0  0
 14 15  2  0  0  0
 14 20  1  0  0  0
 15 16  1  0  0  0
 15 17  1  0  0  0
 17 18  2  0  0  0
 18 19  1  0  0  0
 19 20  2  0  0  0
 21 22  2  0  0  0
 21 27  1  0  0  0
 22 23  1  0  0  0
 23 24  2  0  0  0
 24 25  1  0  0  0
 24 26  1  0  0  0
 26 27  2  0  0  0
M  END
>  <CHROM.0>
-61.06204740,66.35469548,-46.61654753,64.35759795,-30.44123722,-59.90346390
-36.91132161,-169.16595222

>  <CHROM.1>
105.06698418,-101.83416837,-173.66873123,-77.66462893,100.46407072,17.84685310
-23.02839547,21.89927125,-12.13614752,-1.39628511,0.48156331,0.75800282

>  <Name>
F2964-2754

>  <RI>
1.96345e+07

>  <Rbt.Current_Directory>
/home/adria/Escritorio/rDock_CMTR_LC/2pxcA_model/inputs_sah

>  <Rbt.Executable>
rbdock ($Id: //depot/dev/client3/rdock/2013.1/src/exe/rbdock.cxx#4 $)

>  <Rbt.Library>
libRbt.so (2013.1, Build901 2013/11/27)

>  <Rbt.Parameter_File>
/home/adria/Escritorio/rDock_2013.1_src/data/scripts/dock.prm

>  <Rbt.Receptor>
sah_rdock.prm

>  <SCORE>
-56.4415

>  <SCORE.INTER>
-7.65396

>  <SCORE.INTER.CONST>
1

>  <SCORE.INTER.POLAR>
-0.178665

>  <SCORE.INTER.REPUL>
0.0317913

>  <SCORE.INTER.ROT>
6

>  <SCORE.INTER.VDW>
-18.6055

>  <SCORE.INTER.norm>
-0.28348

>  <SCORE.INTRA>
-42.2556

>  <SCORE.INTRA.DIHEDRAL>
5.78083

>  <SCORE.INTRA.DIHEDRAL.0>
10.0861

>  <SCORE.INTRA.POLAR>
0

>  <SCORE.INTRA.POLAR.0>
0

>  <SCORE.INTRA.REPUL>
0

>  <SCORE.INTRA.REPUL.0>
0

>  <SCORE.INTRA.VDW>
-45.146

>  <SCORE.INTRA.VDW.0>
43.0757

>  <SCORE.INTRA.norm>
-1.56502

>  <SCORE.RESTR>
0.653251

>  <SCORE.RESTR.CAVITY>
0.653251

>  <SCORE.RESTR.norm>
0.0241945

>  <SCORE.SYSTEM>
-7.18524

>  <SCORE.SYSTEM.CONST>
0

>  <SCORE.SYSTEM.DIHEDRAL>
5.56945

>  <SCORE.SYSTEM.POLAR>
-3.66704

>  <SCORE.SYSTEM.VDW>
2.49797

>  <SCORE.SYSTEM.norm>
-0.26612

>  <SCORE.heavy>
27

>  <SCORE.norm>
-2.09043

$$$$
F2964-2754
  rDOCK(R)          3D
libRbt.so/2013.1/901 2013/11/27
 28 30  0  0  0  0  0  0  0  0999 V2000
  -20.1010   24.3726  -10.8244 C   0  0  0  0  0  0
  -21.1134   23.0124  -11.3607 C   0  0  0  0  0  0
  -22.4663   22.2755  -11.0144 C   0  0  0  0  0  0
  -21.1459   23.1706  -12.7626 N   0  0  0  0  0  0
  -20.3257   22.3749  -13.4660 C   0  0  0  0  0  0
  -20.2394   22.5939  -14.6833 O   0  0  0  0  0  0
  -19.7151   21.1063  -12.7995 C   0  0  0  0  0  0
  -18.4893   19.9309  -13.5518 S   0  0  0  0  0  0
  -18.4838   19.5388  -15.3750 C   0  0  0  0  0  0
  -18.6266   20.6118  -16.1515 N   0  0  0  0  0  0
  -18.9507   20.1082  -17.3962 C   0  0  0  0  0  0
  -19.3150   18.7664  -17.2231 C   0  0  0  0  0  0
  -18.1473   18.4134  -16.3835 N   0  0  0  0  0  0
  -17.0565   17.1332  -16.7747 C   0  0  0  0  0  0
  -16.9447   15.9073  -17.7964 C   0  0  0  0  0  0
  -17.8932   15.0102  -18.7664 C   0  0  0  0  0  0
  -15.6889   15.3552  -18.1946 C   0  0  0  0  0  0
  -14.5316   15.9091  -17.6989 C   0  0  0  0  0  0
  -14.5719   16.8818  -16.7331 C   0  0  0  0  0  0
  -15.7841   17.4470  -16.2256 C   0  0  0  0  0  0
  -20.7576   18.4442  -16.7916 C   0  0  0  0  0  0
  -21.8699   18.9722  -17.4406 C   0  0  0  0  0  0
  -23.1728   18.6277  -17.0328 C   0  0  0  0  0  0
  -23.4174   17.8036  -15.9221 C   0  0  0  0  0  0
  -24.8081   17.6406  -15.3851 C   0  0  0  0  0  0
  -22.3190   17.2446  -15.2677 C   0  0  0  0  0  0
  -21.0201   17.5529  -15.7063 C   0  0  0  0  0  0
  -21.6670   23.9179  -13.1829 H   0  0  0  0  0  0
  1  2  1  0  0  0
  2  3  1  0  0  0
  2  4  1  0  0  0
  4  5  1  0  0  0
  4 28  1  0  0  0
  5  6  2  0  0  0
  5  7  1  0  0  0
  7  8  1  0  0  0
  8  9  1  0  0  0
  9 10  2  0  0  0
  9 13  1  0  0  0
 10 11  1  0  0  0
 11 12  2  0  0  0
 12 13  1  0  0  0
 12 21  1  0  0  0
 13 14  1  0  0  0
 14 15  2  0  0  0
 14 20  1  0  0  0
 15 16  1  0  0  0
 15 17  1  0  0  0
 17 18  2  0  0  0
 18 19  1  0  0  0
 19 20  2  0  0  0
 21 22  2  0  0  0
 21 27  1  0  0  0
 22 23  1  0  0  0
 23 24  2  0  0  0
 24 25  1  0  0  0
 24 26  1  0  0  0
 26 27  2  0  0  0
M  END
>  <CHROM.0>
-56.14338401,-167.36441335,-10.49625975,63.78479723,168.36998585,-177.82093560
-38.06568522,-160.19416513

>  <CHROM.1>
100.79103835,-176.17909294,-33.50200692,44.18862587,50.46855952,169.88911671
-19.51467736,19.24265087,-15.34240745,-2.09571348,-0.00229700,-2.43626078

>  <Name>
F2964-2754

>  <RI>
1.96345e+07

>  <Rbt.Current_Directory>
/home/adria/Escritorio/rDock_CMTR_LC/2pxcA_model/inputs_sah

>  <Rbt.Executable>
rbdock ($Id: //depot/dev/client3/rdock/2013.1/src/exe/rbdock.cxx#4 $)

>  <Rbt.Library>
libRbt.so (2013.1, Build901 2013/11/27)

>  <Rbt.Parameter_File>
/home/adria/Escritorio/rDock_2013.1_src/data/scripts/dock.prm

>  <Rbt.Receptor>
sah_rdock.prm

>  <SCORE>
-60.0573

>  <SCORE.INTER>
-12.8208

>  <SCORE.INTER.CONST>
1

>  <SCORE.INTER.POLAR>
0

>  <SCORE.INTER.REPUL>
0

>  <SCORE.INTER.ROT>
6

>  <SCORE.INTER.VDW>
-24.2208

>  <SCORE.INTER.norm>
-0.474844

>  <SCORE.INTRA>
-46.0874

>  <SCORE.INTRA.DIHEDRAL>
0.412104

>  <SCORE.INTRA.DIHEDRAL.0>
10.0861

>  <SCORE.INTRA.POLAR>
0

>  <SCORE.INTRA.POLAR.0>
0

>  <SCORE.INTRA.REPUL>
0

>  <SCORE.INTRA.REPUL.0>
0

>  <SCORE.INTRA.VDW>
-46.2935

>  <SCORE.INTRA.VDW.0>
43.0757

>  <SCORE.INTRA.norm>
-1.70694

>  <SCORE.RESTR>
0

>  <SCORE.RESTR.CAVITY>
0

>  <SCORE.RESTR.norm>
0

>  <SCORE.SYSTEM>
-1.14908

>  <SCORE.SYSTEM.CONST>
0

>  <SCORE.SYSTEM.DIHEDRAL>
6.51059

>  <SCORE.SYSTEM.POLAR>
-4.16099

>  <SCORE.SYSTEM.VDW>
9.74299

>  <SCORE.SYSTEM.norm>
-0.0425586

>  <SCORE.heavy>
27

>  <SCORE.norm>
-2.22434

$$$$
F2964-2754
  rDOCK(R)          3D
libRbt.so/2013.1/901 2013/11/27
 28 30  0  0  0  0  0  0  0  0999 V2000
  -20.2491   24.0156  -11.3157 C   0  0  0  0  0  0
  -20.9299   22.4867  -11.9170 C   0  0  0  0  0  0
  -22.2131   21.5761  -11.7848 C   0  0  0  0  0  0
  -20.6829   22.5500  -13.3050 N   0  0  0  0  0  0
  -19.6978   21.7641  -13.7661 C   0  0  0  0  0  0
  -19.3755   21.9078  -14.9547 O   0  0  0  0  0  0
  -19.1742   20.5839  -12.8947 C   0  0  0  0  0  0
  -19.2837   18.7720  -13.2883 S   0  0  0  0  0  0
  -19.2197   18.1335  -15.0393 C   0  0  0  0  0  0
  -18.7028   19.0036  -15.9055 N   0  0  0  0  0  0
  -19.0569   18.5188  -17.1495 C   0  0  0  0  0  0
  -20.0581   17.5579  -16.9548 C   0  0  0  0  0  0
  -19.3482   16.8359  -15.8741 N   0  0  0  0  0  0
  -18.9925   15.1476  -15.9428 C   0  0  0  0  0  0
  -18.7117   14.0127  -17.0348 C   0  0  0  0  0  0
  -18.9244   13.7404  -18.6241 C   0  0  0  0  0  0
  -17.9541   12.8381  -16.7401 C   0  0  0  0  0  0
  -17.4287   12.6846  -15.4783 C   0  0  0  0  0  0
  -17.7353   13.5664  -14.4739 C   0  0  0  0  0  0
  -18.5411   14.7336  -14.6607 C   0  0  0  0  0  0
  -21.5147   18.0324  -16.7994 C   0  0  0  0  0  0
  -22.0955   18.9629  -17.6561 C   0  0  0  0  0  0
  -23.4407   19.3471  -17.4971 C   0  0  0  0  0  0
  -24.2353   18.8749  -16.4397 C   0  0  0  0  0  0
  -25.5844   19.4731  -16.1735 C   0  0  0  0  0  0
  -23.6826   17.9249  -15.5797 C   0  0  0  0  0  0
  -22.3542   17.5081  -15.7691 C   0  0  0  0  0  0
  -21.1435   23.2331  -13.8777 H   0  0  0  0  0  0
  1  2  1  0  0  0
  2  3  1  0  0  0
  2  4  1  0  0  0
  4  5  1  0  0  0
  4 28  1  0  0  0
  5  6  2  0  0  0
  5  7  1  0  0  0
  7  8  1  0  0  0
  8  9  1  0  0  0
  9 10  2  0  0  0
  9 13  1  0  0  0
 10 11  1  0  0  0
 11 12  2  0  0  0
 12 13  1  0  0  0
 12 21  1  0  0  0
 13 14  1  0  0  0
 14 15  2  0  0  0
 14 20  1  0  0  0
 15 16  1  0  0  0
 15 17  1  0  0  0
 17 18  2  0  0  0
 18 19  1  0  0  0
 19 20  2  0  0  0
 21 22  2  0  0  0
 21 27  1  0  0  0
 22 23  1  0  0  0
 23 24  2  0  0  0
 24 25  1  0  0  0
 24 26  1  0  0  0
 26 27  2  0  0  0
M  END
>  <CHROM.0>
-64.13262791,-170.96832899,75.39561156,66.62788360,-30.44384954,-55.67371034
-36.77925496,-160.27829064

>  <CHROM.1>
105.84469101,115.78705893,32.19699276,18.89067225,47.09847049,-151.14129763
-20.30244574,18.30051419,-15.15080608,-1.91002043,0.51284578,-2.57203697

>  <Name>
F2964-2754

>  <RI>
1.96345e+07

>  <Rbt.Current_Directory>
/home/adria/Escritorio/rDock_CMTR_LC/2pxcA_model/inputs_sah

>  <Rbt.Executable>
rbdock ($Id: //depot/dev/client3/rdock/2013.1/src/exe/rbdock.cxx#4 $)

>  <Rbt.Library>
libRbt.so (2013.1, Build901 2013/11/27)

>  <Rbt.Parameter_File>
/home/adria/Escritorio/rDock_2013.1_src/data/scripts/dock.prm

>  <Rbt.Receptor>
sah_rdock.prm

>  <SCORE>
-65.118

>  <SCORE.INTER>
-12.065

>  <SCORE.INTER.CONST>
1

>  <SCORE.INTER.POLAR>
0

>  <SCORE.INTER.REPUL>
0

>  <SCORE.INTER.ROT>
6

>  <SCORE.INTER.VDW>
-23.465

>  <SCORE.INTER.norm>
-0.446851

>  <SCORE.INTRA>
-46.565

>  <SCORE.INTRA.DIHEDRAL>
-0.745264

>  <SCORE.INTRA.DIHEDRAL.0>
10.0861

>  <SCORE.INTRA.POLAR>
0

>  <SCORE.INTRA.POLAR.0>
0

>  <SCORE.INTRA.REPUL>
0

>  <SCORE.INTRA.REPUL.0>
0

>  <SCORE.INTRA.VDW>
-46.1924

>  <SCORE.INTRA.VDW.0>
43.0757

>  <SCORE.INTRA.norm>
-1.72463

>  <SCORE.RESTR>
0

>  <SCORE.RESTR.CAVITY>
0

>  <SCORE.RESTR.norm>
0

>  <SCORE.SYSTEM>
-6.48803

>  <SCORE.SYSTEM.CONST>
0

>  <SCORE.SYSTEM.DIHEDRAL>
6.53119

>  <SCORE.SYSTEM.POLAR>
-3.77333

>  <SCORE.SYSTEM.VDW>
3.07571

>  <SCORE.SYSTEM.norm>
-0.240297

>  <SCORE.heavy>
27

>  <SCORE.norm>
-2.41178

$$$$
F2964-2754
  rDOCK(R)          3D
libRbt.so/2013.1/901 2013/11/27
 28 30  0  0  0  0  0  0  0  0999 V2000
  -23.0596   19.5036  -13.1858 C   0  0  0  0  0  0
  -21.9416   19.5429  -11.8033 C   0  0  0  0  0  0
  -21.9280   19.7572  -10.2390 C   0  0  0  0  0  0
  -21.1353   18.4035  -12.0110 N   0  0  0  0  0  0
  -19.9415   18.6211  -12.5840 C   0  0  0  0  0  0
  -19.2800   17.6210  -12.8992 O   0  0  0  0  0  0
  -19.3482   20.0609  -12.6185 C   0  0  0  0  0  0
  -18.9719   21.0768  -14.1273 S   0  0  0  0  0  0
  -18.8523   20.3187  -15.8269 C   0  0  0  0  0  0
  -19.1795   21.1572  -16.8089 N   0  0  0  0  0  0
  -19.3747   20.3511  -17.9135 C   0  0  0  0  0  0
  -19.4810   19.0313  -17.4550 C   0  0  0  0  0  0
  -18.2860   19.0916  -16.5823 N   0  0  0  0  0  0
  -16.9635   17.9895  -16.7161 C   0  0  0  0  0  0
  -16.5744   16.6553  -17.5085 C   0  0  0  0  0  0
  -17.2883   15.4517  -18.3372 C   0  0  0  0  0  0
  -15.2188   16.2882  -17.7693 C   0  0  0  0  0  0
  -14.2103   17.1205  -17.3425 C   0  0  0  0  0  0
  -14.4808   18.2133  -16.5596 C   0  0  0  0  0  0
  -15.8025   18.6192  -16.1922 C   0  0  0  0  0  0
  -20.8451   18.5384  -16.9379 C   0  0  0  0  0  0
  -20.9674   17.6619  -15.8637 C   0  0  0  0  0  0
  -22.2357   17.2596  -15.4031 C   0  0  0  0  0  0
  -23.4243   17.6569  -16.0370 C   0  0  0  0  0  0
  -24.7351   17.0340  -15.6592 C   0  0  0  0  0  0
  -23.3294   18.5525  -17.1030 C   0  0  0  0  0  0
  -22.0642   18.9893  -17.5309 C   0  0  0  0  0  0
  -21.4960   17.4821  -11.8446 H   0  0  0  0  0  0
  1  2  1  0  0  0
  2  3  1  0  0  0
  2  4  1  0  0  0
  4  5  1  0  0  0
  4 28  1  0  0  0
  5  6  2  0  0  0
  5  7  1  0  0  0
  7  8  1  0  0  0
  8  9  1  0  0  0
  9 10  2  0  0  0
  9 13  1  0  0  0
 10 11  1  0  0  0
 11 12  2  0  0  0
 12 13  1  0  0  0
 12 21  1  0  0  0
 13 14  1  0  0  0
 14 15  2  0  0  0
 14 20  1  0  0  0
 15 16  1  0  0  0
 15 17  1  0  0  0
 17 18  2  0  0  0
 18 19  1  0  0  0
 19 20  2  0  0  0
 21 22  2  0  0  0
 21 27  1  0  0  0
 22 23  1  0  0  0
 23 24  2  0  0  0
 24 25  1  0  0  0
 24 26  1  0  0  0
 26 27  2  0  0  0
M  END
>  <CHROM.0>
-179.75766930,-167.45932418,-45.10129281,57.52678213,34.82883956,-65.41333367
-156.70981041,-156.49811939

>  <CHROM.1>
98.61307708,-117.16212362,-16.34187566,151.24905053,-143.49108740,173.46582326
-19.60889900,18.65849360,-15.37169957,-2.56632120,-0.04865690,-1.97409761

>  <Name>
F2964-2754

>  <RI>
1.96345e+07

>  <Rbt.Current_Directory>
/home/adria/Escritorio/rDock_CMTR_LC/2pxcA_model/inputs_sah

>  <Rbt.Executable>
rbdock ($Id: //depot/dev/client3/rdock/2013.1/src/exe/rbdock.cxx#4 $)

>  <Rbt.Library>
libRbt.so (2013.1, Build901 2013/11/27)

>  <Rbt.Parameter_File>
/home/adria/Escritorio/rDock_2013.1_src/data/scripts/dock.prm

>  <Rbt.Receptor>
sah_rdock.prm

>  <SCORE>
-54.0672

>  <SCORE.INTER>
-12.902

>  <SCORE.INTER.CONST>
1

>  <SCORE.INTER.POLAR>
-0.593202

>  <SCORE.INTER.REPUL>
0.00256689

>  <SCORE.INTER.ROT>
6

>  <SCORE.INTER.VDW>
-22.298

>  <SCORE.INTER.norm>
-0.477852

>  <SCORE.INTRA>
-47.1815

>  <SCORE.INTRA.DIHEDRAL>
0.494952

>  <SCORE.INTRA.DIHEDRAL.0>
10.0861

>  <SCORE.INTRA.POLAR>
0

>  <SCORE.INTRA.POLAR.0>
0

>  <SCORE.INTRA.REPUL>
0

>  <SCORE.INTRA.REPUL.0>
0

>  <SCORE.INTRA.VDW>
-47.429

>  <SCORE.INTRA.VDW.0>
43.0757

>  <SCORE.INTRA.norm>
-1.74746

>  <SCORE.RESTR>
0

>  <SCORE.RESTR.CAVITY>
0

>  <SCORE.RESTR.norm>
0

>  <SCORE.SYSTEM>
6.01629

>  <SCORE.SYSTEM.CONST>
0

>  <SCORE.SYSTEM.DIHEDRAL>
6.01473

>  <SCORE.SYSTEM.POLAR>
-3.41748

>  <SCORE.SYSTEM.VDW>
14.6284

>  <SCORE.SYSTEM.norm>
0.222826

>  <SCORE.heavy>
27

>  <SCORE.norm>
-2.00249

$$$$
F2964-2754
  rDOCK(R)          3D
libRbt.so/2013.1/901 2013/11/27
 28 30  0  0  0  0  0  0  0  0999 V2000
  -17.2545   17.5021  -18.0529 C   0  0  0  0  0  0
  -16.9276   18.8421  -16.9302 C   0  0  0  0  0  0
  -15.7881   19.8582  -16.5273 C   0  0  0  0  0  0
  -18.0895   19.6365  -17.0327 N   0  0  0  0  0  0
  -19.0528   19.3933  -16.1306 C   0  0  0  0  0  0
  -20.1317   19.9830  -16.2894 O   0  0  0  0  0  0
  -18.7198   18.5935  -14.8361 C   0  0  0  0  0  0
  -18.9743   19.1518  -13.0830 S   0  0  0  0  0  0
  -20.6754   19.3781  -12.3530 C   0  0  0  0  0  0
  -21.0067   18.4361  -11.4713 N   0  0  0  0  0  0
  -22.3741   18.5583  -11.3186 C   0  0  0  0  0  0
  -22.8438   19.3520  -12.3735 C   0  0  0  0  0  0
  -21.8206   20.4109  -12.2158 N   0  0  0  0  0  0
  -22.2142   22.0750  -11.9758 C   0  0  0  0  0  0
  -21.4753   23.4656  -11.6935 C   0  0  0  0  0  0
  -20.0433   24.0242  -11.1622 C   0  0  0  0  0  0
  -22.0485   24.7234  -12.0537 C   0  0  0  0  0  0
  -23.2706   24.7413  -12.6847 C   0  0  0  0  0  0
  -23.9989   23.5905  -12.8455 C   0  0  0  0  0  0
  -23.5337   22.2954  -12.4544 C   0  0  0  0  0  0
  -23.1229   18.6826  -13.7319 C   0  0  0  0  0  0
  -22.7240   19.2452  -14.9408 C   0  0  0  0  0  0
  -22.9725   18.5848  -16.1593 C   0  0  0  0  0  0
  -23.6879   17.3781  -16.2258 C   0  0  0  0  0  0
  -24.1248   16.8225  -17.5484 C   0  0  0  0  0  0
  -24.0800   16.7831  -15.0260 C   0  0  0  0  0  0
  -23.7894   17.4213  -13.8083 C   0  0  0  0  0  0
  -18.2202   20.2569  -17.8103 H   0  0  0  0  0  0
  1  2  1  0  0  0
  2  3  1  0  0  0
  2  4  1  0  0  0
  4  5  1  0  0  0
  4 28  1  0  0  0
  5  6  2  0  0  0
  5  7  1  0  0  0
  7  8  1  0  0  0
  8  9  1  0  0  0
  9 10  2  0  0  0
  9 13  1  0  0  0
 10 11  1  0  0  0
 11 12  2  0  0  0
 12 13  1  0  0  0
 12 21  1  0  0  0
 13 14  1  0  0  0
 14 15  2  0  0  0
 14 20  1  0  0  0
 15 16  1  0  0  0
 15 17  1  0  0  0
 17 18  2  0  0  0
 18 19  1  0  0  0
 19 20  2  0  0  0
 21 22  2  0  0  0
 21 27  1  0  0  0
 22 23  1  0  0  0
 23 24  2  0  0  0
 24 25  1  0  0  0
 24 26  1  0  0  0
 26 27  2  0  0  0
M  END
>  <CHROM.0>
176.52691404,-71.75046708,-165.27889048,65.43423972,-30.97360523,-58.94086994
-37.18025184,-162.01787413

>  <CHROM.1>
93.67059749,123.15266797,68.25820098,107.51830626,-135.65320289,-3.68914683
-21.08616096,19.90478257,-14.12938618,-1.01228914,0.28601851,0.64490268

>  <Name>
F2964-2754

>  <RI>
1.96345e+07

>  <Rbt.Current_Directory>
/home/adria/Escritorio/rDock_CMTR_LC/2pxcA_model/inputs_sah

>  <Rbt.Executable>
rbdock ($Id: //depot/dev/client3/rdock/2013.1/src/exe/rbdock.cxx#4 $)

>  <Rbt.Library>
libRbt.so (2013.1, Build901 2013/11/27)

>  <Rbt.Parameter_File>
/home/adria/Escritorio/rDock_2013.1_src/data/scripts/dock.prm

>  <Rbt.Receptor>
sah_rdock.prm

>  <SCORE>
-62.9307

>  <SCORE.INTER>
-10.1356

>  <SCORE.INTER.CONST>
1

>  <SCORE.INTER.POLAR>
0

>  <SCORE.INTER.REPUL>
0.0690444

>  <SCORE.INTER.ROT>
6

>  <SCORE.INTER.VDW>
-21.8808

>  <SCORE.INTER.norm>
-0.375391

>  <SCORE.INTRA>
-45.7737

>  <SCORE.INTRA.DIHEDRAL>
1.00309

>  <SCORE.INTRA.DIHEDRAL.0>
10.0861

>  <SCORE.INTRA.POLAR>
0

>  <SCORE.INTRA.POLAR.0>
0

>  <SCORE.INTRA.REPUL>
0

>  <SCORE.INTRA.REPUL.0>
0

>  <SCORE.INTRA.VDW>
-46.2752

>  <SCORE.INTRA.VDW.0>
43.0757

>  <SCORE.INTRA.norm>
-1.69532

>  <SCORE.RESTR>
0

>  <SCORE.RESTR.CAVITY>
0

>  <SCORE.RESTR.norm>
0

>  <SCORE.SYSTEM>
-7.02147

>  <SCORE.SYSTEM.CONST>
0

>  <SCORE.SYSTEM.DIHEDRAL>
6.38907

>  <SCORE.SYSTEM.POLAR>
-3.92059

>  <SCORE.SYSTEM.REPUL>
0.0362282

>  <SCORE.SYSTEM.VDW>
2.93286

>  <SCORE.SYSTEM.norm>
-0.260055

>  <SCORE.heavy>
27

>  <SCORE.norm>
-2.33077

$$$$
F2964-2754
  rDOCK(R)          3D
libRbt.so/2013.1/901 2013/11/27
 28 30  0  0  0  0  0  0  0  0999 V2000
  -18.6076   13.6842  -18.8253 C   0  0  0  0  0  0
  -17.3250   12.9429  -17.8415 C   0  0  0  0  0  0
  -16.6933   11.5359  -17.5029 C   0  0  0  0  0  0
  -16.2147   13.7810  -18.0785 N   0  0  0  0  0  0
  -15.8468   14.5758  -17.0617 C   0  0  0  0  0  0
  -14.9644   15.4144  -17.2962 O   0  0  0  0  0  0
  -16.3516   14.2744  -15.6192 C   0  0  0  0  0  0
  -18.0540   14.5857  -14.9449 S   0  0  0  0  0  0
  -19.1334   15.9673  -15.5806 C   0  0  0  0  0  0
  -19.5811   15.7673  -16.8192 N   0  0  0  0  0  0
  -20.0395   17.0024  -17.2344 C   0  0  0  0  0  0
  -19.5354   17.9578  -16.3420 C   0  0  0  0  0  0
  -19.9187   17.2186  -15.1173 N   0  0  0  0  0  0
  -20.9121   17.8965  -13.8782 C   0  0  0  0  0  0
  -22.1600   17.4847  -12.9659 C   0  0  0  0  0  0
  -23.3547   16.3820  -12.9222 C   0  0  0  0  0  0
  -22.4112   18.0879  -11.6956 C   0  0  0  0  0  0
  -21.5385   19.0431  -11.2286 C   0  0  0  0  0  0
  -20.5217   19.5163  -12.0176 C   0  0  0  0  0  0
  -20.2366   19.0191  -13.3284 C   0  0  0  0  0  0
  -18.1068   18.4893  -16.5609 C   0  0  0  0  0  0
  -17.2563   17.9740  -17.5346 C   0  0  0  0  0  0
  -15.9676   18.5096  -17.7220 C   0  0  0  0  0  0
  -15.4523   19.5273  -16.9027 C   0  0  0  0  0  0
  -14.0061   19.9151  -16.9868 C   0  0  0  0  0  0
  -16.2931   20.0752  -15.9330 C   0  0  0  0  0  0
  -17.5954   19.5705  -15.7794 C   0  0  0  0  0  0
  -15.8117   13.8525  -18.9945 H   0  0  0  0  0  0
  1  2  1  0  0  0
  2  3  1  0  0  0
  2  4  1  0  0  0
  4  5  1  0  0  0
  4 28  1  0  0  0
  5  6  2  0  0  0
  5  7  1  0  0  0
  7  8  1  0  0  0
  8  9  1  0  0  0
  9 10  2  0  0  0
  9 13  1  0  0  0
 10 11  1  0  0  0
 11 12  2  0  0  0
 12 13  1  0  0  0
 12 21  1  0  0  0
 13 14  1  0  0  0
 14 15  2  0  0  0
 14 20  1  0  0  0
 15 16  1  0  0  0
 15 17  1  0  0  0
 17 18  2  0  0  0
 18 19  1  0  0  0
 19 20  2  0  0  0
 21 22  2  0  0  0
 21 27  1  0  0  0
 22 23  1  0  0  0
 23 24  2  0  0  0
 24 25  1  0  0  0
 24 26  1  0  0  0
 26 27  2  0  0  0
M  END
>  <CHROM.0>
-57.10150410,64.12388883,-164.74621964,58.63440665,-32.17554875,60.91772690
81.12770515,-167.69841822

>  <CHROM.1>
107.99395542,-75.26957567,-29.36522507,69.87795682,-5.86497442,-44.26367257
-18.37730201,16.70155884,-15.70447198,0.63062206,-0.60156654,-2.85646227

>  <Name>
F2964-2754

>  <RI>
1.96345e+07

>  <Rbt.Current_Directory>
/home/adria/Escritorio/rDock_CMTR_LC/2pxcA_model/inputs_sah

>  <Rbt.Executable>
rbdock ($Id: //depot/dev/client3/rdock/2013.1/src/exe/rbdock.cxx#4 $)

>  <Rbt.Library>
libRbt.so (2013.1, Build901 2013/11/27)

>  <Rbt.Parameter_File>
/home/adria/Escritorio/rDock_2013.1_src/data/scripts/dock.prm

>  <Rbt.Receptor>
sah_rdock.prm

>  <SCORE>
-54.3305

>  <SCORE.INTER>
-5.88678

>  <SCORE.INTER.CONST>
1

>  <SCORE.INTER.POLAR>
0

>  <SCORE.INTER.REPUL>
0

>  <SCORE.INTER.ROT>
6

>  <SCORE.INTER.VDW>
-17.2868

>  <SCORE.INTER.norm>
-0.218029

>  <SCORE.INTRA>
-41.6316

>  <SCORE.INTRA.DIHEDRAL>
10.7093

>  <SCORE.INTRA.DIHEDRAL.0>
10.0861

>  <SCORE.INTRA.POLAR>
0

>  <SCORE.INTRA.POLAR.0>
0

>  <SCORE.INTRA.REPUL>
0

>  <SCORE.INTRA.REPUL.0>
0

>  <SCORE.INTRA.VDW>
-46.9862

>  <SCORE.INTRA.VDW.0>
43.0757

>  <SCORE.INTRA.norm>
-1.54191

>  <SCORE.RESTR>
0

>  <SCORE.RESTR.CAVITY>
0

>  <SCORE.RESTR.norm>
0

>  <SCORE.SYSTEM>
-6.8121

>  <SCORE.SYSTEM.CONST>
0

>  <SCORE.SYSTEM.DIHEDRAL>
5.08268

>  <SCORE.SYSTEM.POLAR>
-3.54507

>  <SCORE.SYSTEM.VDW>
2.69979

>  <SCORE.SYSTEM.norm>
-0.2523

>  <SCORE.heavy>
27

>  <SCORE.norm>
-2.01224

$$$$
F2964-2754
  rDOCK(R)          3D
libRbt.so/2013.1/901 2013/11/27
 28 30  0  0  0  0  0  0  0  0999 V2000
  -21.6063   26.0573   -9.5985 C   0  0  0  0  0  0
  -22.4376   24.5374  -10.0002 C   0  0  0  0  0  0
  -23.2637   23.3726   -9.3262 C   0  0  0  0  0  0
  -23.1761   24.8719  -11.1553 N   0  0  0  0  0  0
  -22.4924   24.8858  -12.3100 C   0  0  0  0  0  0
  -23.0897   25.3099  -13.3103 O   0  0  0  0  0  0
  -21.1072   24.1792  -12.4003 C   0  0  0  0  0  0
  -20.7555   22.5000  -13.1118 S   0  0  0  0  0  0
  -21.3462   20.9332  -12.2907 C   0  0  0  0  0  0
  -20.3575   20.1281  -11.9047 N   0  0  0  0  0  0
  -20.9652   18.9121  -11.6602 C   0  0  0  0  0  0
  -22.2420   18.9589  -12.2354 C   0  0  0  0  0  0
  -22.6018   20.2777  -11.6656 N   0  0  0  0  0  0
  -24.0090   20.5356  -10.6987 C   0  0  0  0  0  0
  -25.3566   21.3972  -10.7271 C   0  0  0  0  0  0
  -25.9788   22.7031  -11.4706 C   0  0  0  0  0  0
  -26.5359   20.9963  -10.0278 C   0  0  0  0  0  0
  -26.5212   19.8169   -9.3203 C   0  0  0  0  0  0
  -25.3621   19.1005   -9.1664 C   0  0  0  0  0  0
  -24.1186   19.4621   -9.7743 C   0  0  0  0  0  0
  -22.3853   18.6524  -13.7376 C   0  0  0  0  0  0
  -23.3355   19.2743  -14.5423 C   0  0  0  0  0  0
  -23.4128   18.9873  -15.9186 C   0  0  0  0  0  0
  -22.5973   18.0210  -16.5299 C   0  0  0  0  0  0
  -22.8586   17.5847  -17.9407 C   0  0  0  0  0  0
  -21.6223   17.3989  -15.7490 C   0  0  0  0  0  0
  -21.5163   17.7218  -14.3855 C   0  0  0  0  0  0
  -24.1240   25.1928  -11.0835 H   0  0  0  0  0  0
  1  2  1  0  0  0
  2  3  1  0  0  0
  2  4  1  0  0  0
  4  5  1  0  0  0
  4 28  1  0  0  0
  5  6  2  0  0  0
  5  7  1  0  0  0
  7  8  1  0  0  0
  8  9  1  0  0  0
  9 10  2  0  0  0
  9 13  1  0  0  0
 10 11  1  0  0  0
 11 12  2  0  0  0
 12 13  1  0  0  0
 12 21  1  0  0  0
 13 14  1  0  0  0
 14 15  2  0  0  0
 14 20  1  0  0  0
 15 16  1  0  0  0
 15 17  1  0  0  0
 17 18  2  0  0  0
 18 19  1  0  0  0
 19 20  2  0  0  0
 21 22  2  0  0  0
 21 27  1  0  0  0
 22 23  1  0  0  0
 23 24  2  0  0  0
 24 25  1  0  0  0
 24 26  1  0  0  0
 26 27  2  0  0  0
M  END
>  <CHROM.0>
-152.18518462,-165.46228530,111.55767228,-59.48575454,-29.50968886,65.82714881
-158.02941094,-156.56050674

>  <CHROM.1>
79.95142390,99.74681945,-68.79032327,-117.90458633,-146.45744711,61.70222944
-22.89095616,21.16005180,-12.28982263,-1.74614173,-0.82375555,-2.58438257

>  <Name>
F2964-2754

>  <RI>
1.96345e+07

>  <Rbt.Current_Directory>
/home/adria/Escritorio/rDock_CMTR_LC/2pxcA_model/inputs_sah

>  <Rbt.Executable>
rbdock ($Id: //depot/dev/client3/rdock/2013.1/src/exe/rbdock.cxx#4 $)

>  <Rbt.Library>
libRbt.so (2013.1, Build901 2013/11/27)

>  <Rbt.Parameter_File>
/home/adria/Escritorio/rDock_2013.1_src/data/scripts/dock.prm

>  <Rbt.Receptor>
sah_rdock.prm

>  <SCORE>
-53.8609

>  <SCORE.INTER>
-6.70039

>  <SCORE.INTER.CONST>
1

>  <SCORE.INTER.POLAR>
-0.681593

>  <SCORE.INTER.REPUL>
0.198782

>  <SCORE.INTER.ROT>
6

>  <SCORE.INTER.VDW>
-16.7769

>  <SCORE.INTER.norm>
-0.248163

>  <SCORE.INTRA>
-43.0788

>  <SCORE.INTRA.DIHEDRAL>
6.47322

>  <SCORE.INTRA.DIHEDRAL.0>
10.0861

>  <SCORE.INTRA.POLAR>
0

>  <SCORE.INTRA.POLAR.0>
0

>  <SCORE.INTRA.REPUL>
0

>  <SCORE.INTRA.REPUL.0>
0

>  <SCORE.INTRA.VDW>
-46.3154

>  <SCORE.INTRA.VDW.0>
43.0757

>  <SCORE.INTRA.norm>
-1.59551

>  <SCORE.RESTR>
0

>  <SCORE.RESTR.CAVITY>
0

>  <SCORE.RESTR.norm>
0

>  <SCORE.SYSTEM>
-4.08172

>  <SCORE.SYSTEM.CONST>
0

>  <SCORE.SYSTEM.DIHEDRAL>
13.2118

>  <SCORE.SYSTEM.POLAR>
-4.33912

>  <SCORE.SYSTEM.VDW>
4.06538

>  <SCORE.SYSTEM.norm>
-0.151175

>  <SCORE.heavy>
27

>  <SCORE.norm>
-1.99485

$$$$
F2964-2754
  rDOCK(R)          3D
libRbt.so/2013.1/901 2013/11/27
 28 30  0  0  0  0  0  0  0  0999 V2000
  -15.2009   17.1615  -16.4967 C   0  0  0  0  0  0
  -15.3204   18.9280  -16.3299 C   0  0  0  0  0  0
  -14.4204   20.2048  -16.0996 C   0  0  0  0  0  0
  -16.1863   19.2913  -17.3834 N   0  0  0  0  0  0
  -17.4576   19.5503  -17.0405 C   0  0  0  0  0  0
  -18.2615   19.7355  -17.9660 O   0  0  0  0  0  0
  -17.8180   19.8307  -15.5513 C   0  0  0  0  0  0
  -19.4121   20.5279  -14.9012 S   0  0  0  0  0  0
  -20.2127   19.8842  -13.3447 C   0  0  0  0  0  0
  -19.6212   18.7974  -12.8513 N   0  0  0  0  0  0
  -20.5294   18.2778  -11.9495 C   0  0  0  0  0  0
  -21.7628   18.8959  -12.1942 C   0  0  0  0  0  0
  -21.2209   20.2735  -12.2362 N   0  0  0  0  0  0
  -21.7997   21.5463  -11.2229 C   0  0  0  0  0  0
  -21.6361   23.1287  -11.0535 C   0  0  0  0  0  0
  -20.6277   24.3260  -11.4945 C   0  0  0  0  0  0
  -22.6412   23.9409  -10.4447 C   0  0  0  0  0  0
  -23.8013   23.3463  -10.0059 C   0  0  0  0  0  0
  -23.9446   21.9826  -10.0199 C   0  0  0  0  0  0
  -22.9626   21.0865  -10.5484 C   0  0  0  0  0  0
  -22.6579   18.3365  -13.3154 C   0  0  0  0  0  0
  -22.8704   16.9728  -13.4949 C   0  0  0  0  0  0
  -23.7211   16.5044  -14.5145 C   0  0  0  0  0  0
  -24.3341   17.3693  -15.4357 C   0  0  0  0  0  0
  -25.0483   16.8231  -16.6359 C   0  0  0  0  0  0
  -24.1537   18.7424  -15.2639 C   0  0  0  0  0  0
  -23.3417   19.2092  -14.2165 C   0  0  0  0  0  0
  -15.8833   19.2382  -18.3384 H   0  0  0  0  0  0
  1  2  1  0  0  0
  2  3  1  0  0  0
  2  4  1  0  0  0
  4  5  1  0  0  0
  4 28  1  0  0  0
  5  6  2  0  0  0
  5  7  1  0  0  0
  7  8  1  0  0  0
  8  9  1  0  0  0
  9 10  2  0  0  0
  9 13  1  0  0  0
 10 11  1  0  0  0
 11 12  2  0  0  0
 12 13  1  0  0  0
 12 21  1  0  0  0
 13 14  1  0  0  0
 14 15  2  0  0  0
 14 20  1  0  0  0
 15 16  1  0  0  0
 15 17  1  0  0  0
 17 18  2  0  0  0
 18 19  1  0  0  0
 19 20  2  0  0  0
 21 22  2  0  0  0
 21 27  1  0  0  0
 22 23  1  0  0  0
 23 24  2  0  0  0
 24 25  1  0  0  0
 24 26  1  0  0  0
 26 27  2  0  0  0
M  END
>  <CHROM.0>
-61.75534057,-70.71419651,-43.80472276,65.82786868,-31.33625928,62.75140317
84.76079361,-46.82235985

>  <CHROM.1>
101.83906987,167.08911415,139.63612011,-7.37413536,43.89488921,9.29263608
-20.60036577,19.83050522,-13.92456777,0.61173658,-0.33016719,-2.39945240

>  <Name>
F2964-2754

>  <RI>
1.96345e+07

>  <Rbt.Current_Directory>
/home/adria/Escritorio/rDock_CMTR_LC/2pxcA_model/inputs_sah

>  <Rbt.Executable>
rbdock ($Id: //depot/dev/client3/rdock/2013.1/src/exe/rbdock.cxx#4 $)

>  <Rbt.Library>
libRbt.so (2013.1, Build901 2013/11/27)

>  <Rbt.Parameter_File>
/home/adria/Escritorio/rDock_2013.1_src/data/scripts/dock.prm

>  <Rbt.Receptor>
sah_rdock.prm

>  <SCORE>
-57.5721

>  <SCORE.INTER>
-6.2398

>  <SCORE.INTER.CONST>
1

>  <SCORE.INTER.POLAR>
0

>  <SCORE.INTER.REPUL>
0.227523

>  <SCORE.INTER.ROT>
6

>  <SCORE.INTER.VDW>
-18.7774

>  <SCORE.INTER.norm>
-0.231104

>  <SCORE.INTRA>
-46.1106

>  <SCORE.INTRA.DIHEDRAL>
-1.40802

>  <SCORE.INTRA.DIHEDRAL.0>
10.0861

>  <SCORE.INTRA.POLAR>
0

>  <SCORE.INTRA.POLAR.0>
0

>  <SCORE.INTRA.REPUL>
0

>  <SCORE.INTRA.REPUL.0>
0

>  <SCORE.INTRA.VDW>
-45.4066

>  <SCORE.INTRA.VDW.0>
43.0757

>  <SCORE.INTRA.norm>
-1.7078

>  <SCORE.RESTR>
0

>  <SCORE.RESTR.CAVITY>
0

>  <SCORE.RESTR.norm>
0

>  <SCORE.SYSTEM>
-5.22169

>  <SCORE.SYSTEM.CONST>
0

>  <SCORE.SYSTEM.DIHEDRAL>
8.57246

>  <SCORE.SYSTEM.POLAR>
-3.60664

>  <SCORE.SYSTEM.REPUL>
0.0540748

>  <SCORE.SYSTEM.VDW>
2.48428

>  <SCORE.SYSTEM.norm>
-0.193396

>  <SCORE.heavy>
27

>  <SCORE.norm>
-2.1323

$$$$
F2964-2754
  rDOCK(R)          3D
libRbt.so/2013.1/901 2013/11/27
 28 30  0  0  0  0  0  0  0  0999 V2000
  -21.6720   26.3841   -9.2368 C   0  0  0  0  0  0
  -22.4430   24.9052   -9.8541 C   0  0  0  0  0  0
  -23.3349   23.6927   -9.3770 C   0  0  0  0  0  0
  -23.0451   25.3355  -11.0557 N   0  0  0  0  0  0
  -22.2964   25.2256  -12.1639 C   0  0  0  0  0  0
  -22.7550   25.7243  -13.2023 O   0  0  0  0  0  0
  -21.0372   24.3088  -12.1621 C   0  0  0  0  0  0
  -20.6988   22.8755  -13.2940 S   0  0  0  0  0  0
  -21.2797   21.1469  -12.9037 C   0  0  0  0  0  0
  -20.7263   20.6336  -11.8061 N   0  0  0  0  0  0
  -20.9870   19.2790  -11.8776 C   0  0  0  0  0  0
  -21.3967   19.0002  -13.1882 C   0  0  0  0  0  0
  -22.3720   20.1118  -13.2675 N   0  0  0  0  0  0
  -24.0391   19.8786  -13.6526 C   0  0  0  0  0  0
  -25.0796   18.6800  -13.8522 C   0  0  0  0  0  0
  -25.0879   17.0770  -14.1271 C   0  0  0  0  0  0
  -26.4856   18.8482  -13.6644 C   0  0  0  0  0  0
  -26.9626   20.0791  -13.2780 C   0  0  0  0  0  0
  -26.1315   21.1674  -13.2063 C   0  0  0  0  0  0
  -24.7219   21.1069  -13.4432 C   0  0  0  0  0  0
  -20.3193   18.7814  -14.2664 C   0  0  0  0  0  0
  -19.1220   18.1210  -14.0065 C   0  0  0  0  0  0
  -18.1762   17.9153  -15.0291 C   0  0  0  0  0  0
  -18.3542   18.4199  -16.3276 C   0  0  0  0  0  0
  -17.2336   18.3757  -17.3232 C   0  0  0  0  0  0
  -19.5557   19.0671  -16.6189 C   0  0  0  0  0  0
  -20.5183   19.2298  -15.6082 C   0  0  0  0  0  0
  -23.9330   25.8025  -11.0464 H   0  0  0  0  0  0
  1  2  1  0  0  0
  2  3  1  0  0  0
  2  4  1  0  0  0
  4  5  1  0  0  0
  4 28  1  0  0  0
  5  6  2  0  0  0
  5  7  1  0  0  0
  7  8  1  0  0  0
  8  9  1  0  0  0
  9 10  2  0  0  0
  9 13  1  0  0  0
 10 11  1  0  0  0
 11 12  2  0  0  0
 12 13  1  0  0  0
 12 21  1  0  0  0
 13 14  1  0  0  0
 14 15  2  0  0  0
 14 20  1  0  0  0
 15 16  1  0  0  0
 15 17  1  0  0  0
 17 18  2  0  0  0
 18 19  1  0  0  0
 19 20  2  0  0  0
 21 22  2  0  0  0
 21 27  1  0  0  0
 22 23  1  0  0  0
 23 24  2  0  0  0
 24 25  1  0  0  0
 24 26  1  0  0  0
 26 27  2  0  0  0
M  END
>  <CHROM.0>
40.06569333,-167.74039094,99.28517636,64.92266583,168.80000586,63.61367501
-37.57665998,-44.71562893

>  <CHROM.1>
90.85034453,122.14576843,-87.89079958,-63.90640261,37.16792894,-170.71712240
-22.00614155,21.12858364,-13.20995727,-1.94352111,-0.21801203,-2.62986467

>  <Name>
F2964-2754

>  <RI>
1.96345e+07

>  <Rbt.Current_Directory>
/home/adria/Escritorio/rDock_CMTR_LC/2pxcA_model/inputs_sah

>  <Rbt.Executable>
rbdock ($Id: //depot/dev/client3/rdock/2013.1/src/exe/rbdock.cxx#4 $)

>  <Rbt.Library>
libRbt.so (2013.1, Build901 2013/11/27)

>  <Rbt.Parameter_File>
/home/adria/Escritorio/rDock_2013.1_src/data/scripts/dock.prm

>  <Rbt.Receptor>
sah_rdock.prm

>  <SCORE>
-52.6919

>  <SCORE.INTER>
-12.6513

>  <SCORE.INTER.CONST>
1

>  <SCORE.INTER.POLAR>
-1.52218

>  <SCORE.INTER.REPUL>
0.0780463

>  <SCORE.INTER.ROT>
6

>  <SCORE.INTER.VDW>
-19.2661

>  <SCORE.INTER.norm>
-0.468566

>  <SCORE.INTRA>
-45.5359

>  <SCORE.INTRA.DIHEDRAL>
0.836807

>  <SCORE.INTRA.DIHEDRAL.0>
10.0861

>  <SCORE.INTRA.POLAR>
0

>  <SCORE.INTRA.POLAR.0>
0

>  <SCORE.INTRA.REPUL>
0

>  <SCORE.INTRA.REPUL.0>
0

>  <SCORE.INTRA.VDW>
-45.9543

>  <SCORE.INTRA.VDW.0>
43.0757

>  <SCORE.INTRA.norm>
-1.68651

>  <SCORE.RESTR>
0

>  <SCORE.RESTR.CAVITY>
0

>  <SCORE.RESTR.norm>
0

>  <SCORE.SYSTEM>
5.49525

>  <SCORE.SYSTEM.CONST>
0

>  <SCORE.SYSTEM.DIHEDRAL>
9.37822

>  <SCORE.SYSTEM.POLAR>
-3.48676

>  <SCORE.SYSTEM.REPUL>
0.14821

>  <SCORE.SYSTEM.VDW>
11.9201

>  <SCORE.SYSTEM.norm>
0.203528

>  <SCORE.heavy>
27

>  <SCORE.norm>
-1.95155

$$$$
