F3382-4448
  rDOCK(R)          3D
libRbt.so/2013.1/901 2013/11/27
 32 35  0  0  0  0  0  0  0  0999 V2000
  -23.4320   16.1909  -13.0183 C   0  0  0  0  0  0
  -22.7905   17.5081  -12.9827 N   0  0  0  0  0  0
  -23.0480   18.1597  -14.1652 C   0  0  0  0  0  0
  -24.5823   19.0829  -14.4056 C   0  0  0  0  0  0
  -25.0607   19.7887  -15.9799 C   0  0  0  0  0  0
  -24.1006   19.7183  -17.3838 C   0  0  0  0  0  0
  -24.5228   20.0508  -18.6110 F   0  0  0  0  0  0
  -22.6635   18.7917  -17.3290 C   0  0  0  0  0  0
  -21.9808   17.8369  -15.6086 C   0  0  0  0  0  0
  -21.2132   17.8459  -12.4988 S   0  0  0  0  0  0
  -21.1234   17.8604  -11.0518 O   0  0  0  0  0  0
  -20.3888   16.8934  -13.1888 O   0  0  0  0  0  0
  -20.7291   19.5354  -12.8657 C   0  0  0  0  0  0
  -21.2354   20.6553  -12.0968 C   0  0  0  0  0  0
  -20.5350   22.1186  -12.7070 S   0  0  0  0  0  0
  -19.4849   21.3128  -13.7505 C   0  0  0  0  0  0
  -19.6443   19.9374  -13.8452 C   0  0  0  0  0  0
  -18.7015   19.2109  -14.7953 C   0  0  0  0  0  0
  -17.6829   19.8771  -15.5163 C   0  0  0  0  0  0
  -16.8216   19.2115  -16.4200 C   0  0  0  0  0  0
  -16.9129   17.8429  -16.6163 C   0  0  0  0  0  0
  -17.8744   17.1550  -15.9186 C   0  0  0  0  0  0
  -18.7556   17.8470  -15.0768 C   0  0  0  0  0  0
  -22.1425   20.9438  -10.8793 C   0  0  0  0  0  0
  -22.2054   20.1851   -9.9104 O   0  0  0  0  0  0
  -22.8038   22.1697  -10.6460 N   0  0  0  0  0  0
  -21.7184   23.6132  -10.8922 N   0  0  0  0  0  0
  -22.6841   25.2262  -10.8929 C   0  0  0  0  0  0
  -22.8012   26.2656  -12.1023 C   0  0  0  0  0  0
  -24.5010   24.5651  -10.3455 C   0  0  0  0  0  0
  -24.3636   22.7760   -9.9820 C   0  0  0  0  0  0
  -24.2272   22.1413   -8.4801 C   0  0  0  0  0  0
  1  2  1  0  0  0
  2  3  1  0  0  0
  2 10  1  0  0  0
  3  4  2  0  0  0
  3  9  1  0  0  0
  4  5  1  0  0  0
  5  6  2  0  0  0
  6  7  1  0  0  0
  6  8  1  0  0  0
  8  9  2  0  0  0
 10 11  2  0  0  0
 10 12  2  0  0  0
 10 13  1  0  0  0
 13 14  2  0  0  0
 13 17  1  0  0  0
 14 15  1  0  0  0
 14 24  1  0  0  0
 15 16  1  0  0  0
 16 17  2  0  0  0
 17 18  1  0  0  0
 18 19  2  0  0  0
 18 23  1  0  0  0
 19 20  1  0  0  0
 20 21  2  0  0  0
 21 22  1  0  0  0
 22 23  2  0  0  0
 24 25  2  0  0  0
 24 26  1  0  0  0
 26 27  1  0  0  0
 26 31  1  0  0  0
 27 28  2  0  0  0
 28 29  1  0  0  0
 28 30  1  0  0  0
 30 31  2  0  0  0
 31 32  1  0  0  0
M  END
>  <CHROM.0>
-63.04080490,-73.39570754,72.17966184,-61.83900769,-30.98300752,-179.42071017
76.08489303,-165.06727647

>  <CHROM.1>
84.16617430,-78.75189738,73.73275272,33.78377252,-173.96228236,-21.58323590
20.04476151,-13.36319196,1.14641826,0.22219273,-2.26213781

>  <Name>
F3382-4448

>  <RI>
1.73817e+07

>  <Rbt.Current_Directory>
/home/adria/Escritorio/rDock_CMTR_LC/2pxcA_model/inputs_sah

>  <Rbt.Executable>
rbdock ($Id: //depot/dev/client3/rdock/2013.1/src/exe/rbdock.cxx#4 $)

>  <Rbt.Library>
libRbt.so (2013.1, Build901 2013/11/27)

>  <Rbt.Parameter_File>
/home/adria/Escritorio/rDock_2013.1_src/data/scripts/dock.prm

>  <Rbt.Receptor>
sah_rdock.prm

>  <SCORE>
-249.784

>  <SCORE.INTER>
-19.7048

>  <SCORE.INTER.CONST>
1

>  <SCORE.INTER.POLAR>
-1.0641

>  <SCORE.INTER.REPUL>
0

>  <SCORE.INTER.ROT>
5

>  <SCORE.INTER.VDW>
-26.4869

>  <SCORE.INTER.norm>
-0.615776

>  <SCORE.INTRA>
-222.751

>  <SCORE.INTRA.DIHEDRAL>
0.549275

>  <SCORE.INTRA.DIHEDRAL.0>
5.05771

>  <SCORE.INTRA.POLAR>
0

>  <SCORE.INTRA.POLAR.0>
0

>  <SCORE.INTRA.REPUL>
0

>  <SCORE.INTRA.REPUL.0>
0

>  <SCORE.INTRA.VDW>
-223.025

>  <SCORE.INTRA.VDW.0>
220.808

>  <SCORE.INTRA.norm>
-6.96095

>  <SCORE.RESTR>
0

>  <SCORE.RESTR.CAVITY>
0

>  <SCORE.RESTR.norm>
0

>  <SCORE.SYSTEM>
-7.32835

>  <SCORE.SYSTEM.CONST>
0

>  <SCORE.SYSTEM.DIHEDRAL>
5.60182

>  <SCORE.SYSTEM.POLAR>
-3.83269

>  <SCORE.SYSTEM.REPUL>
0.0392345

>  <SCORE.SYSTEM.VDW>
2.70571

>  <SCORE.SYSTEM.norm>
-0.229011

>  <SCORE.heavy>
32

>  <SCORE.norm>
-7.80574

$$$$
F3382-4448
  rDOCK(R)          3D
libRbt.so/2013.1/901 2013/11/27
 32 35  0  0  0  0  0  0  0  0999 V2000
  -23.4682   16.6744  -13.1760 C   0  0  0  0  0  0
  -22.9112   18.0300  -13.1677 N   0  0  0  0  0  0
  -23.1727   18.6251  -14.3787 C   0  0  0  0  0  0
  -24.7209   19.5107  -14.6668 C   0  0  0  0  0  0
  -25.2019   20.1393  -16.2727 C   0  0  0  0  0  0
  -24.2326   20.0244  -17.6674 C   0  0  0  0  0  0
  -24.6531   20.2960  -18.9100 F   0  0  0  0  0  0
  -22.7804   19.1256  -17.5649 C   0  0  0  0  0  0
  -22.0918   18.2582  -15.8012 C   0  0  0  0  0  0
  -21.3734   18.4823  -12.6513 S   0  0  0  0  0  0
  -21.4106   18.8944  -11.2618 O   0  0  0  0  0  0
  -20.5195   17.3737  -12.9749 O   0  0  0  0  0  0
  -20.8104   20.0037  -13.4206 C   0  0  0  0  0  0
  -21.3277   21.2964  -13.0167 C   0  0  0  0  0  0
  -20.5408   22.5313  -13.9440 S   0  0  0  0  0  0
  -19.4530   21.4593  -14.6569 C   0  0  0  0  0  0
  -19.6518   20.1116  -14.3920 C   0  0  0  0  0  0
  -18.6744   19.1426  -15.0440 C   0  0  0  0  0  0
  -17.4546   19.5642  -15.6233 C   0  0  0  0  0  0
  -16.5556   18.6719  -16.2534 C   0  0  0  0  0  0
  -16.8153   17.3116  -16.3001 C   0  0  0  0  0  0
  -17.9786   16.8582  -15.7296 C   0  0  0  0  0  0
  -18.8820   17.7699  -15.1668 C   0  0  0  0  0  0
  -22.3014   21.9149  -11.9882 C   0  0  0  0  0  0
  -23.2794   21.3023  -11.5563 O   0  0  0  0  0  0
  -22.0661   23.1168  -11.2850 N   0  0  0  0  0  0
  -20.3834   23.2085  -10.5907 N   0  0  0  0  0  0
  -19.9837   24.9273   -9.9423 C   0  0  0  0  0  0
  -18.8267   25.8981  -10.4677 C   0  0  0  0  0  0
  -21.7816   25.8087  -10.1097 C   0  0  0  0  0  0
  -22.9786   24.5442  -10.6753 C   0  0  0  0  0  0
  -24.0155   23.7428   -9.6954 C   0  0  0  0  0  0
  1  2  1  0  0  0
  2  3  1  0  0  0
  2 10  1  0  0  0
  3  4  2  0  0  0
  3  9  1  0  0  0
  4  5  1  0  0  0
  5  6  2  0  0  0
  6  7  1  0  0  0
  6  8  1  0  0  0
  8  9  2  0  0  0
 10 11  2  0  0  0
 10 12  2  0  0  0
 10 13  1  0  0  0
 13 14  2  0  0  0
 13 17  1  0  0  0
 14 15  1  0  0  0
 14 24  1  0  0  0
 15 16  1  0  0  0
 16 17  2  0  0  0
 17 18  1  0  0  0
 18 19  2  0  0  0
 18 23  1  0  0  0
 19 20  1  0  0  0
 20 21  2  0  0  0
 21 22  1  0  0  0
 22 23  2  0  0  0
 24 25  2  0  0  0
 24 26  1  0  0  0
 26 27  1  0  0  0
 26 31  1  0  0  0
 27 28  2  0  0  0
 28 29  1  0  0  0
 28 30  1  0  0  0
 30 31  2  0  0  0
 31 32  1  0  0  0
M  END
>  <CHROM.0>
-61.85936819,68.09012505,-43.78125273,65.36966834,-30.07267505,-178.65341592
-37.08599870,-159.58436097

>  <CHROM.1>
87.17954254,-93.92700409,75.15946797,-29.41394378,-161.55469392,-21.29741766
20.44831487,-13.65855869,1.47549163,0.12284641,-2.39630700

>  <Name>
F3382-4448

>  <RI>
1.73817e+07

>  <Rbt.Current_Directory>
/home/adria/Escritorio/rDock_CMTR_LC/2pxcA_model/inputs_sah

>  <Rbt.Executable>
rbdock ($Id: //depot/dev/client3/rdock/2013.1/src/exe/rbdock.cxx#4 $)

>  <Rbt.Library>
libRbt.so (2013.1, Build901 2013/11/27)

>  <Rbt.Parameter_File>
/home/adria/Escritorio/rDock_2013.1_src/data/scripts/dock.prm

>  <Rbt.Receptor>
sah_rdock.prm

>  <SCORE>
-247.96

>  <SCORE.INTER>
-16.8495

>  <SCORE.INTER.CONST>
1

>  <SCORE.INTER.POLAR>
-0.824621

>  <SCORE.INTER.REPUL>
0.0266219

>  <SCORE.INTER.ROT>
5

>  <SCORE.INTER.VDW>
-24.5789

>  <SCORE.INTER.norm>
-0.526547

>  <SCORE.INTRA>
-224.005

>  <SCORE.INTRA.DIHEDRAL>
2.91896

>  <SCORE.INTRA.DIHEDRAL.0>
5.05771

>  <SCORE.INTRA.POLAR>
0

>  <SCORE.INTRA.POLAR.0>
0

>  <SCORE.INTRA.REPUL>
0

>  <SCORE.INTRA.REPUL.0>
0

>  <SCORE.INTRA.VDW>
-225.465

>  <SCORE.INTRA.VDW.0>
220.808

>  <SCORE.INTRA.norm>
-7.00017

>  <SCORE.RESTR>
0

>  <SCORE.RESTR.CAVITY>
0

>  <SCORE.RESTR.norm>
0

>  <SCORE.SYSTEM>
-7.10516

>  <SCORE.SYSTEM.CONST>
0

>  <SCORE.SYSTEM.DIHEDRAL>
6.41002

>  <SCORE.SYSTEM.POLAR>
-3.70534

>  <SCORE.SYSTEM.VDW>
2.28799

>  <SCORE.SYSTEM.norm>
-0.222036

>  <SCORE.heavy>
32

>  <SCORE.norm>
-7.74875

$$$$
F3382-4448
  rDOCK(R)          3D
libRbt.so/2013.1/901 2013/11/27
 32 35  0  0  0  0  0  0  0  0999 V2000
  -20.4418   23.5155  -12.6030 C   0  0  0  0  0  0
  -21.1125   22.2137  -12.5414 N   0  0  0  0  0  0
  -22.3619   22.3833  -11.9942 C   0  0  0  0  0  0
  -23.8421   21.8063  -12.8545 C   0  0  0  0  0  0
  -25.5025   22.1656  -12.2892 C   0  0  0  0  0  0
  -25.8554   23.0257  -10.8632 C   0  0  0  0  0  0
  -27.0702   23.4833  -10.5323 F   0  0  0  0  0  0
  -24.5512   23.7160   -9.9974 C   0  0  0  0  0  0
  -22.5562   23.4688  -10.5415 C   0  0  0  0  0  0
  -20.4549   20.7693  -11.9782 S   0  0  0  0  0  0
  -19.0089   20.8020  -12.0792 O   0  0  0  0  0  0
  -21.0079   20.5828  -10.6659 O   0  0  0  0  0  0
  -20.8190   19.3818  -13.0581 C   0  0  0  0  0  0
  -19.9244   19.0001  -14.1332 C   0  0  0  0  0  0
  -20.5751   17.6104  -14.9390 S   0  0  0  0  0  0
  -21.8169   17.4030  -13.8183 C   0  0  0  0  0  0
  -21.9473   18.3907  -12.8523 C   0  0  0  0  0  0
  -23.0754   18.2078  -11.8457 C   0  0  0  0  0  0
  -23.9530   17.0988  -11.8770 C   0  0  0  0  0  0
  -25.0187   16.9374  -10.9606 C   0  0  0  0  0  0
  -25.2334   17.8570   -9.9466 C   0  0  0  0  0  0
  -24.3898   18.9371   -9.8675 C   0  0  0  0  0  0
  -23.3805   19.1064  -10.8249 C   0  0  0  0  0  0
  -18.5595   19.3997  -14.7379 C   0  0  0  0  0  0
  -17.8418   20.2632  -14.2303 O   0  0  0  0  0  0
  -17.9029   18.6928  -15.7693 N   0  0  0  0  0  0
  -17.8874   16.8919  -15.4893 N   0  0  0  0  0  0
  -17.3020   15.9499  -17.0073 C   0  0  0  0  0  0
  -18.1446   14.8838  -17.8502 C   0  0  0  0  0  0
  -16.7102   17.4728  -18.1770 C   0  0  0  0  0  0
  -16.8830   19.0215  -17.2161 C   0  0  0  0  0  0
  -15.6525   19.7827  -16.4521 C   0  0  0  0  0  0
  1  2  1  0  0  0
  2  3  1  0  0  0
  2 10  1  0  0  0
  3  4  2  0  0  0
  3  9  1  0  0  0
  4  5  1  0  0  0
  5  6  2  0  0  0
  6  7  1  0  0  0
  6  8  1  0  0  0
  8  9  2  0  0  0
 10 11  2  0  0  0
 10 12  2  0  0  0
 10 13  1  0  0  0
 13 14  2  0  0  0
 13 17  1  0  0  0
 14 15  1  0  0  0
 14 24  1  0  0  0
 15 16  1  0  0  0
 16 17  2  0  0  0
 17 18  1  0  0  0
 18 19  2  0  0  0
 18 23  1  0  0  0
 19 20  1  0  0  0
 20 21  2  0  0  0
 21 22  1  0  0  0
 22 23  2  0  0  0
 24 25  2  0  0  0
 24 26  1  0  0  0
 26 27  1  0  0  0
 26 31  1  0  0  0
 27 28  2  0  0  0
 28 29  1  0  0  0
 28 30  1  0  0  0
 30 31  2  0  0  0
 31 32  1  0  0  0
M  END
>  <CHROM.0>
-175.28752917,-69.82752305,71.70547960,-59.32644187,168.25925381,64.13455643
-157.21308722,-163.44019064

>  <CHROM.1>
125.58689818,-24.15509061,91.32576696,4.58765782,-176.06358384,-21.20327369
19.71678441,-13.13326283,-2.55936833,-0.53939784,-2.84731475

>  <Name>
F3382-4448

>  <RI>
1.73817e+07

>  <Rbt.Current_Directory>
/home/adria/Escritorio/rDock_CMTR_LC/2pxcA_model/inputs_sah

>  <Rbt.Executable>
rbdock ($Id: //depot/dev/client3/rdock/2013.1/src/exe/rbdock.cxx#4 $)

>  <Rbt.Library>
libRbt.so (2013.1, Build901 2013/11/27)

>  <Rbt.Parameter_File>
/home/adria/Escritorio/rDock_2013.1_src/data/scripts/dock.prm

>  <Rbt.Receptor>
sah_rdock.prm

>  <SCORE>
-235.437

>  <SCORE.INTER>
-9.5954

>  <SCORE.INTER.CONST>
1

>  <SCORE.INTER.POLAR>
0

>  <SCORE.INTER.REPUL>
0.0347139

>  <SCORE.INTER.ROT>
5

>  <SCORE.INTER.VDW>
-20.169

>  <SCORE.INTER.norm>
-0.299856

>  <SCORE.INTRA>
-223.52

>  <SCORE.INTRA.DIHEDRAL>
-1.59693

>  <SCORE.INTRA.DIHEDRAL.0>
5.05771

>  <SCORE.INTRA.POLAR>
0

>  <SCORE.INTRA.POLAR.0>
0

>  <SCORE.INTRA.REPUL>
0

>  <SCORE.INTRA.REPUL.0>
0

>  <SCORE.INTRA.VDW>
-222.722

>  <SCORE.INTRA.VDW.0>
220.808

>  <SCORE.INTRA.norm>
-6.985

>  <SCORE.RESTR>
0.015076

>  <SCORE.RESTR.CAVITY>
0.015076

>  <SCORE.RESTR.norm>
0.000471126

>  <SCORE.SYSTEM>
-2.33706

>  <SCORE.SYSTEM.CONST>
0

>  <SCORE.SYSTEM.DIHEDRAL>
3.13266

>  <SCORE.SYSTEM.POLAR>
-3.92911

>  <SCORE.SYSTEM.REPUL>
0.0323851

>  <SCORE.SYSTEM.VDW>
9.29364

>  <SCORE.SYSTEM.norm>
-0.0730333

>  <SCORE.heavy>
32

>  <SCORE.norm>
-7.35742

$$$$
F3382-4448
  rDOCK(R)          3D
libRbt.so/2013.1/901 2013/11/27
 32 35  0  0  0  0  0  0  0  0999 V2000
  -23.6127   17.8423  -11.3932 C   0  0  0  0  0  0
  -22.8344   18.8579  -12.1080 N   0  0  0  0  0  0
  -23.1294   18.7817  -13.4483 C   0  0  0  0  0  0
  -24.4425   19.7895  -14.1723 C   0  0  0  0  0  0
  -25.0010   19.5979  -15.8625 C   0  0  0  0  0  0
  -24.3177   18.5009  -16.9705 C   0  0  0  0  0  0
  -24.8481   18.1939  -18.1617 F   0  0  0  0  0  0
  -23.1286   17.4136  -16.3953 C   0  0  0  0  0  0
  -22.4045   17.4355  -14.4427 C   0  0  0  0  0  0
  -21.1923   19.1818  -11.9220 S   0  0  0  0  0  0
  -20.9796   20.0709  -10.7967 O   0  0  0  0  0  0
  -20.5532   17.8970  -11.8614 O   0  0  0  0  0  0
  -20.5360   20.1904  -13.2544 C   0  0  0  0  0  0
  -20.5127   21.6376  -13.1718 C   0  0  0  0  0  0
  -19.7866   22.2712  -14.6124 S   0  0  0  0  0  0
  -19.3422   20.7517  -15.1908 C   0  0  0  0  0  0
  -19.7961   19.6588  -14.4659 C   0  0  0  0  0  0
  -19.4024   18.2857  -14.9942 C   0  0  0  0  0  0
  -18.9544   18.0785  -16.3200 C   0  0  0  0  0  0
  -18.6126   16.8014  -16.8236 C   0  0  0  0  0  0
  -18.6655   15.6776  -16.0147 C   0  0  0  0  0  0
  -19.0742   15.8390  -14.7142 C   0  0  0  0  0  0
  -19.4670   17.1044  -14.2575 C   0  0  0  0  0  0
  -20.8696   22.7747  -12.1879 C   0  0  0  0  0  0
  -20.0357   23.5933  -11.7971 O   0  0  0  0  0  0
  -22.1854   23.1280  -11.8158 N   0  0  0  0  0  0
  -23.3131   23.2456  -13.2429 N   0  0  0  0  0  0
  -25.1090   23.3983  -12.7083 C   0  0  0  0  0  0
  -26.2896   22.3691  -13.0311 C   0  0  0  0  0  0
  -24.8825   23.6202  -10.7241 C   0  0  0  0  0  0
  -23.0886   23.7003  -10.3673 C   0  0  0  0  0  0
  -22.2524   25.0842  -10.1167 C   0  0  0  0  0  0
  1  2  1  0  0  0
  2  3  1  0  0  0
  2 10  1  0  0  0
  3  4  2  0  0  0
  3  9  1  0  0  0
  4  5  1  0  0  0
  5  6  2  0  0  0
  6  7  1  0  0  0
  6  8  1  0  0  0
  8  9  2  0  0  0
 10 11  2  0  0  0
 10 12  2  0  0  0
 10 13  1  0  0  0
 13 14  2  0  0  0
 13 17  1  0  0  0
 14 15  1  0  0  0
 14 24  1  0  0  0
 15 16  1  0  0  0
 16 17  2  0  0  0
 17 18  1  0  0  0
 18 19  2  0  0  0
 18 23  1  0  0  0
 19 20  1  0  0  0
 20 21  2  0  0  0
 21 22  1  0  0  0
 22 23  2  0  0  0
 24 25  2  0  0  0
 24 26  1  0  0  0
 26 27  1  0  0  0
 26 31  1  0  0  0
 27 28  2  0  0  0
 28 29  1  0  0  0
 28 30  1  0  0  0
 30 31  2  0  0  0
 31 32  1  0  0  0
M  END
>  <CHROM.0>
-55.41559629,-166.90716409,72.43865425,-63.32814480,-30.24775488,61.23268371
83.51968769,-158.27884667

>  <CHROM.1>
92.07237784,-83.68947879,90.97104403,121.35888975,165.82162837,-21.77043538
20.08612890,-13.61756663,1.90889027,-0.21427078,0.67383592

>  <Name>
F3382-4448

>  <RI>
1.73817e+07

>  <Rbt.Current_Directory>
/home/adria/Escritorio/rDock_CMTR_LC/2pxcA_model/inputs_sah

>  <Rbt.Executable>
rbdock ($Id: //depot/dev/client3/rdock/2013.1/src/exe/rbdock.cxx#4 $)

>  <Rbt.Library>
libRbt.so (2013.1, Build901 2013/11/27)

>  <Rbt.Parameter_File>
/home/adria/Escritorio/rDock_2013.1_src/data/scripts/dock.prm

>  <Rbt.Receptor>
sah_rdock.prm

>  <SCORE>
-239.419

>  <SCORE.INTER>
-11.7109

>  <SCORE.INTER.CONST>
1

>  <SCORE.INTER.POLAR>
-0.364202

>  <SCORE.INTER.REPUL>
0

>  <SCORE.INTER.ROT>
5

>  <SCORE.INTER.VDW>
-20.8726

>  <SCORE.INTER.norm>
-0.365966

>  <SCORE.INTRA>
-221.523

>  <SCORE.INTRA.DIHEDRAL>
7.63431

>  <SCORE.INTRA.DIHEDRAL.0>
5.05771

>  <SCORE.INTRA.POLAR>
0

>  <SCORE.INTRA.POLAR.0>
0

>  <SCORE.INTRA.REPUL>
0

>  <SCORE.INTRA.REPUL.0>
0

>  <SCORE.INTRA.VDW>
-225.34

>  <SCORE.INTRA.VDW.0>
220.808

>  <SCORE.INTRA.norm>
-6.92258

>  <SCORE.RESTR>
0

>  <SCORE.RESTR.CAVITY>
0

>  <SCORE.RESTR.norm>
0

>  <SCORE.SYSTEM>
-6.18571

>  <SCORE.SYSTEM.CONST>
0

>  <SCORE.SYSTEM.DIHEDRAL>
6.75518

>  <SCORE.SYSTEM.POLAR>
-3.74962

>  <SCORE.SYSTEM.VDW>
3.1854

>  <SCORE.SYSTEM.norm>
-0.193303

>  <SCORE.heavy>
32

>  <SCORE.norm>
-7.48185

$$$$
F3382-4448
  rDOCK(R)          3D
libRbt.so/2013.1/901 2013/11/27
 32 35  0  0  0  0  0  0  0  0999 V2000
  -20.5591   22.6682  -13.9088 C   0  0  0  0  0  0
  -20.9949   22.0013  -12.6786 N   0  0  0  0  0  0
  -21.1209   22.9417  -11.6842 C   0  0  0  0  0  0
  -22.7111   23.2410  -10.8807 C   0  0  0  0  0  0
  -22.9826   24.5770   -9.7202 C   0  0  0  0  0  0
  -21.7673   25.6546   -9.2105 C   0  0  0  0  0  0
  -21.9898   26.7769   -8.5137 F   0  0  0  0  0  0
  -20.2338   25.5500   -9.9618 C   0  0  0  0  0  0
  -19.7518   24.1094  -11.3865 C   0  0  0  0  0  0
  -20.3597   20.5863  -12.0225 S   0  0  0  0  0  0
  -18.9109   20.6172  -12.0678 O   0  0  0  0  0  0
  -20.9641   20.4607  -10.7256 O   0  0  0  0  0  0
  -20.6806   19.1487  -13.0492 C   0  0  0  0  0  0
  -19.7519   18.7281  -14.0799 C   0  0  0  0  0  0
  -20.3673   17.2977  -14.8411 S   0  0  0  0  0  0
  -21.6396   17.1286  -13.7486 C   0  0  0  0  0  0
  -21.8063   18.1571  -12.8319 C   0  0  0  0  0  0
  -22.9619   18.0085  -11.8511 C   0  0  0  0  0  0
  -23.1636   18.8980  -10.7697 C   0  0  0  0  0  0
  -24.2198   18.7492   -9.8405 C   0  0  0  0  0  0
  -25.1464   17.7271   -9.9708 C   0  0  0  0  0  0
  -24.9993   16.8546  -11.0203 C   0  0  0  0  0  0
  -23.9088   16.9866  -11.8906 C   0  0  0  0  0  0
  -18.3732   19.1133  -14.6622 C   0  0  0  0  0  0
  -17.6223   19.9138  -14.1022 O   0  0  0  0  0  0
  -17.7454   18.4502  -15.7395 N   0  0  0  0  0  0
  -17.7991   16.6356  -15.5770 N   0  0  0  0  0  0
  -17.2521   15.7724  -17.1549 C   0  0  0  0  0  0
  -18.1360   14.7964  -18.0622 C   0  0  0  0  0  0
  -16.6031   17.3442  -18.2255 C   0  0  0  0  0  0
  -16.7151   18.8327  -17.1656 C   0  0  0  0  0  0
  -15.4553   19.4949  -16.3582 C   0  0  0  0  0  0
  1  2  1  0  0  0
  2  3  1  0  0  0
  2 10  1  0  0  0
  3  4  2  0  0  0
  3  9  1  0  0  0
  4  5  1  0  0  0
  5  6  2  0  0  0
  6  7  1  0  0  0
  6  8  1  0  0  0
  8  9  2  0  0  0
 10 11  2  0  0  0
 10 12  2  0  0  0
 10 13  1  0  0  0
 13 14  2  0  0  0
 13 17  1  0  0  0
 14 15  1  0  0  0
 14 24  1  0  0  0
 15 16  1  0  0  0
 16 17  2  0  0  0
 17 18  1  0  0  0
 18 19  2  0  0  0
 18 23  1  0  0  0
 19 20  1  0  0  0
 20 21  2  0  0  0
 21 22  1  0  0  0
 22 23  2  0  0  0
 24 25  2  0  0  0
 24 26  1  0  0  0
 26 27  1  0  0  0
 26 31  1  0  0  0
 27 28  2  0  0  0
 28 29  1  0  0  0
 28 30  1  0  0  0
 30 31  2  0  0  0
 31 32  1  0  0  0
M  END
>  <CHROM.0>
177.93187390,65.92258473,-47.08352343,61.92298190,168.14872157,-58.87060974
-155.22389699,-53.86941196

>  <CHROM.1>
118.98882991,44.10931585,90.56975409,11.66154576,-3.29532478,-20.46845391
19.91839587,-12.94131234,-2.11502275,-0.62376964,-2.69923087

>  <Name>
F3382-4448

>  <RI>
1.73817e+07

>  <Rbt.Current_Directory>
/home/adria/Escritorio/rDock_CMTR_LC/2pxcA_model/inputs_sah

>  <Rbt.Executable>
rbdock ($Id: //depot/dev/client3/rdock/2013.1/src/exe/rbdock.cxx#4 $)

>  <Rbt.Library>
libRbt.so (2013.1, Build901 2013/11/27)

>  <Rbt.Parameter_File>
/home/adria/Escritorio/rDock_2013.1_src/data/scripts/dock.prm

>  <Rbt.Receptor>
sah_rdock.prm

>  <SCORE>
-237.855

>  <SCORE.INTER>
-15.0454

>  <SCORE.INTER.CONST>
1

>  <SCORE.INTER.POLAR>
0

>  <SCORE.INTER.REPUL>
0

>  <SCORE.INTER.ROT>
5

>  <SCORE.INTER.VDW>
-25.4454

>  <SCORE.INTER.norm>
-0.470169

>  <SCORE.INTRA>
-223.046

>  <SCORE.INTRA.DIHEDRAL>
-2.25901

>  <SCORE.INTRA.DIHEDRAL.0>
5.05771

>  <SCORE.INTRA.POLAR>
0

>  <SCORE.INTRA.POLAR.0>
0

>  <SCORE.INTRA.REPUL>
0

>  <SCORE.INTRA.REPUL.0>
0

>  <SCORE.INTRA.VDW>
-221.917

>  <SCORE.INTRA.VDW.0>
220.808

>  <SCORE.INTRA.norm>
-6.97019

>  <SCORE.RESTR>
0.045424

>  <SCORE.RESTR.CAVITY>
0.045424

>  <SCORE.RESTR.norm>
0.0014195

>  <SCORE.SYSTEM>
0.19066

>  <SCORE.SYSTEM.CONST>
0

>  <SCORE.SYSTEM.DIHEDRAL>
5.72456

>  <SCORE.SYSTEM.POLAR>
-3.28364

>  <SCORE.SYSTEM.REPUL>
0.00186077

>  <SCORE.SYSTEM.VDW>
8.48345

>  <SCORE.SYSTEM.norm>
0.00595814

>  <SCORE.heavy>
32

>  <SCORE.norm>
-7.43298

$$$$
F3382-4448
  rDOCK(R)          3D
libRbt.so/2013.1/901 2013/11/27
 32 35  0  0  0  0  0  0  0  0999 V2000
  -23.5989   16.6124  -13.8962 C   0  0  0  0  0  0
  -22.8204   17.8516  -13.9773 N   0  0  0  0  0  0
  -23.3924   18.6746  -14.9178 C   0  0  0  0  0  0
  -24.8664   19.6459  -14.5332 C   0  0  0  0  0  0
  -25.7663   20.5840  -15.7645 C   0  0  0  0  0  0
  -25.2958   20.7078  -17.3958 C   0  0  0  0  0  0
  -26.0572   21.2243  -18.3695 F   0  0  0  0  0  0
  -23.9717   19.7619  -17.9243 C   0  0  0  0  0  0
  -22.8478   18.5531  -16.6542 C   0  0  0  0  0  0
  -21.1444   17.9817  -14.0763 S   0  0  0  0  0  0
  -20.5322   17.5471  -12.8360 O   0  0  0  0  0  0
  -20.7744   17.2668  -15.2658 O   0  0  0  0  0  0
  -20.5897   19.6886  -14.1252 C   0  0  0  0  0  0
  -21.3061   20.7409  -13.4315 C   0  0  0  0  0  0
  -20.4722   22.2413  -13.6715 S   0  0  0  0  0  0
  -19.1586   21.5169  -14.4401 C   0  0  0  0  0  0
  -19.2719   20.1598  -14.7075 C   0  0  0  0  0  0
  -18.0888   19.5077  -15.4106 C   0  0  0  0  0  0
  -17.9665   18.1060  -15.5567 C   0  0  0  0  0  0
  -16.8569   17.4939  -16.1856 C   0  0  0  0  0  0
  -15.8364   18.2556  -16.7319 C   0  0  0  0  0  0
  -15.9276   19.6216  -16.6310 C   0  0  0  0  0  0
  -17.0059   20.2009  -15.9484 C   0  0  0  0  0  0
  -22.5285   20.9312  -12.5052 C   0  0  0  0  0  0
  -23.2480   19.9913  -12.1629 O   0  0  0  0  0  0
  -22.8166   22.1162  -11.7928 N   0  0  0  0  0  0
  -21.3562   22.7993  -10.9428 N   0  0  0  0  0  0
  -21.6769   24.5267  -10.2737 C   0  0  0  0  0  0
  -20.9149   25.8679  -10.6950 C   0  0  0  0  0  0
  -23.6496   24.6920  -10.6183 C   0  0  0  0  0  0
  -24.2412   23.0926  -11.2843 C   0  0  0  0  0  0
  -24.9959   21.9406  -10.4007 C   0  0  0  0  0  0
  1  2  1  0  0  0
  2  3  1  0  0  0
  2 10  1  0  0  0
  3  4  2  0  0  0
  3  9  1  0  0  0
  4  5  1  0  0  0
  5  6  2  0  0  0
  6  7  1  0  0  0
  6  8  1  0  0  0
  8  9  2  0  0  0
 10 11  2  0  0  0
 10 12  2  0  0  0
 10 13  1  0  0  0
 13 14  2  0  0  0
 13 17  1  0  0  0
 14 15  1  0  0  0
 14 24  1  0  0  0
 15 16  1  0  0  0
 16 17  2  0  0  0
 17 18  1  0  0  0
 18 19  2  0  0  0
 18 23  1  0  0  0
 19 20  1  0  0  0
 20 21  2  0  0  0
 21 22  1  0  0  0
 22 23  2  0  0  0
 24 25  2  0  0  0
 24 26  1  0  0  0
 26 27  1  0  0  0
 26 31  1  0  0  0
 27 28  2  0  0  0
 28 29  1  0  0  0
 28 30  1  0  0  0
 30 31  2  0  0  0
 31 32  1  0  0  0
M  END
>  <CHROM.0>
-62.06430781,-73.57492703,-155.50265001,63.48920830,168.58491938,-58.73962875
-157.19647261,-39.49708303

>  <CHROM.1>
78.81700036,-67.85507060,32.36948348,-1.50738748,-6.39984362,-21.54989335
20.27377553,-14.13950340,0.83166236,0.07186784,-2.35780239

>  <Name>
F3382-4448

>  <RI>
1.73817e+07

>  <Rbt.Current_Directory>
/home/adria/Escritorio/rDock_CMTR_LC/2pxcA_model/inputs_sah

>  <Rbt.Executable>
rbdock ($Id: //depot/dev/client3/rdock/2013.1/src/exe/rbdock.cxx#4 $)

>  <Rbt.Library>
libRbt.so (2013.1, Build901 2013/11/27)

>  <Rbt.Parameter_File>
/home/adria/Escritorio/rDock_2013.1_src/data/scripts/dock.prm

>  <Rbt.Receptor>
sah_rdock.prm

>  <SCORE>
-241.009

>  <SCORE.INTER>
-14.1011

>  <SCORE.INTER.CONST>
1

>  <SCORE.INTER.POLAR>
-0.824621

>  <SCORE.INTER.REPUL>
0.311093

>  <SCORE.INTER.ROT>
5

>  <SCORE.INTER.VDW>
-23.2528

>  <SCORE.INTER.norm>
-0.440658

>  <SCORE.INTRA>
-226.641

>  <SCORE.INTRA.DIHEDRAL>
-2.86907

>  <SCORE.INTRA.DIHEDRAL.0>
5.05771

>  <SCORE.INTRA.POLAR>
0

>  <SCORE.INTRA.POLAR.0>
0

>  <SCORE.INTRA.REPUL>
0

>  <SCORE.INTRA.REPUL.0>
0

>  <SCORE.INTRA.VDW>
-225.206

>  <SCORE.INTRA.VDW.0>
220.808

>  <SCORE.INTRA.norm>
-7.08252

>  <SCORE.RESTR>
0

>  <SCORE.RESTR.CAVITY>
0

>  <SCORE.RESTR.norm>
0

>  <SCORE.SYSTEM>
-0.267179

>  <SCORE.SYSTEM.CONST>
0

>  <SCORE.SYSTEM.DIHEDRAL>
5.94675

>  <SCORE.SYSTEM.POLAR>
-3.61325

>  <SCORE.SYSTEM.REPUL>
0.0779617

>  <SCORE.SYSTEM.VDW>
8.65468

>  <SCORE.SYSTEM.norm>
-0.00834935

>  <SCORE.heavy>
32

>  <SCORE.norm>
-7.53153

$$$$
F3382-4448
  rDOCK(R)          3D
libRbt.so/2013.1/901 2013/11/27
 32 35  0  0  0  0  0  0  0  0999 V2000
  -23.4610   16.4352  -13.5367 C   0  0  0  0  0  0
  -22.7642   17.6943  -13.8147 N   0  0  0  0  0  0
  -23.3810   18.3192  -14.8722 C   0  0  0  0  0  0
  -22.6323   18.3254  -16.5164 C   0  0  0  0  0  0
  -23.2862   19.2791  -17.8834 C   0  0  0  0  0  0
  -24.7021   20.2198  -17.7944 C   0  0  0  0  0  0
  -25.0915   21.0977  -18.7283 F   0  0  0  0  0  0
  -25.4633   20.3842  -16.2710 C   0  0  0  0  0  0
  -24.8064   19.4107  -14.5510 C   0  0  0  0  0  0
  -21.0994   17.9167  -13.9373 S   0  0  0  0  0  0
  -20.4516   17.5618  -12.6897 O   0  0  0  0  0  0
  -20.7001   17.1827  -15.1054 O   0  0  0  0  0  0
  -20.6446   19.6497  -14.0515 C   0  0  0  0  0  0
  -21.4147   20.6832  -13.3876 C   0  0  0  0  0  0
  -20.6707   22.2194  -13.6886 S   0  0  0  0  0  0
  -19.3240   21.5447  -14.4450 C   0  0  0  0  0  0
  -19.3610   20.1747  -14.6635 C   0  0  0  0  0  0
  -18.1481   19.5670  -15.3556 C   0  0  0  0  0  0
  -17.1145   20.3550  -15.9141 C   0  0  0  0  0  0
  -15.9989   19.7964  -16.5811 C   0  0  0  0  0  0
  -15.8448   18.4234  -16.6873 C   0  0  0  0  0  0
  -16.8152   17.6222  -16.1388 C   0  0  0  0  0  0
  -17.9415   18.2009  -15.5383 C   0  0  0  0  0  0
  -22.6382   20.8359  -12.4560 C   0  0  0  0  0  0
  -23.3100   19.8707  -12.0876 O   0  0  0  0  0  0
  -22.9772   22.0212  -11.7671 N   0  0  0  0  0  0
  -21.5450   22.7913  -10.9438 N   0  0  0  0  0  0
  -21.9427   24.5159  -10.3098 C   0  0  0  0  0  0
  -21.2481   25.8820  -10.7661 C   0  0  0  0  0  0
  -23.9234   24.5800  -10.6421 C   0  0  0  0  0  0
  -24.4430   22.9402  -11.2686 C   0  0  0  0  0  0
  -25.1360   21.7736  -10.3541 C   0  0  0  0  0  0
  1  2  1  0  0  0
  2  3  1  0  0  0
  2 10  1  0  0  0
  3  4  2  0  0  0
  3  9  1  0  0  0
  4  5  1  0  0  0
  5  6  2  0  0  0
  6  7  1  0  0  0
  6  8  1  0  0  0
  8  9  2  0  0  0
 10 11  2  0  0  0
 10 12  2  0  0  0
 10 13  1  0  0  0
 13 14  2  0  0  0
 13 17  1  0  0  0
 14 15  1  0  0  0
 14 24  1  0  0  0
 15 16  1  0  0  0
 16 17  2  0  0  0
 17 18  1  0  0  0
 18 19  2  0  0  0
 18 23  1  0  0  0
 19 20  1  0  0  0
 20 21  2  0  0  0
 21 22  1  0  0  0
 22 23  2  0  0  0
 24 25  2  0  0  0
 24 26  1  0  0  0
 26 27  1  0  0  0
 26 31  1  0  0  0
 27 28  2  0  0  0
 28 29  1  0  0  0
 28 30  1  0  0  0
 30 31  2  0  0  0
 31 32  1  0  0  0
M  END
>  <CHROM.0>
-60.67234047,-72.92464653,-7.64955094,64.36659285,167.86210237,-56.26598003
-155.97826133,-161.39386752

>  <CHROM.1>
-104.71227727,-60.70092753,32.30791263,-2.47566299,175.60767033,-21.52539542
20.19500474,-14.12411681,0.91445174,0.01665542,-2.35629473

>  <Name>
F3382-4448

>  <RI>
1.73817e+07

>  <Rbt.Current_Directory>
/home/adria/Escritorio/rDock_CMTR_LC/2pxcA_model/inputs_sah

>  <Rbt.Executable>
rbdock ($Id: //depot/dev/client3/rdock/2013.1/src/exe/rbdock.cxx#4 $)

>  <Rbt.Library>
libRbt.so (2013.1, Build901 2013/11/27)

>  <Rbt.Parameter_File>
/home/adria/Escritorio/rDock_2013.1_src/data/scripts/dock.prm

>  <Rbt.Receptor>
sah_rdock.prm

>  <SCORE>
-244.089

>  <SCORE.INTER>
-15.1954

>  <SCORE.INTER.CONST>
1

>  <SCORE.INTER.POLAR>
-0.81347

>  <SCORE.INTER.REPUL>
0.281158

>  <SCORE.INTER.ROT>
5

>  <SCORE.INTER.VDW>
-24.2354

>  <SCORE.INTER.norm>
-0.474856

>  <SCORE.INTRA>
-226.248

>  <SCORE.INTRA.DIHEDRAL>
-3.28437

>  <SCORE.INTRA.DIHEDRAL.0>
5.05771

>  <SCORE.INTRA.POLAR>
0

>  <SCORE.INTRA.POLAR.0>
0

>  <SCORE.INTRA.REPUL>
0

>  <SCORE.INTRA.REPUL.0>
0

>  <SCORE.INTRA.VDW>
-224.606

>  <SCORE.INTRA.VDW.0>
220.808

>  <SCORE.INTRA.norm>
-7.07026

>  <SCORE.RESTR>
0

>  <SCORE.RESTR.CAVITY>
0

>  <SCORE.RESTR.norm>
0

>  <SCORE.SYSTEM>
-2.64552

>  <SCORE.SYSTEM.CONST>
0

>  <SCORE.SYSTEM.DIHEDRAL>
6.81872

>  <SCORE.SYSTEM.POLAR>
-4.61579

>  <SCORE.SYSTEM.REPUL>
0.0384007

>  <SCORE.SYSTEM.VDW>
9.44681

>  <SCORE.SYSTEM.norm>
-0.0826725

>  <SCORE.heavy>
32

>  <SCORE.norm>
-7.62779

$$$$
F3382-4448
  rDOCK(R)          3D
libRbt.so/2013.1/901 2013/11/27
 32 35  0  0  0  0  0  0  0  0999 V2000
  -19.7097   16.8149  -15.5307 C   0  0  0  0  0  0
  -20.8393   17.1522  -14.6599 N   0  0  0  0  0  0
  -21.9075   17.5229  -15.4414 C   0  0  0  0  0  0
  -21.7233   18.7599  -16.7453 C   0  0  0  0  0  0
  -23.1089   19.4226  -17.6652 C   0  0  0  0  0  0
  -24.7201   18.9159  -17.4527 C   0  0  0  0  0  0
  -25.7872   19.5368  -17.9727 F   0  0  0  0  0  0
  -25.0566   17.8182  -16.1843 C   0  0  0  0  0  0
  -23.5858   16.9950  -14.9610 C   0  0  0  0  0  0
  -20.7951   18.1272  -13.2875 S   0  0  0  0  0  0
  -22.0788   18.1059  -12.6140 O   0  0  0  0  0  0
  -19.6605   17.6741  -12.5323 O   0  0  0  0  0  0
  -20.6741   19.8730  -13.6890 C   0  0  0  0  0  0
  -21.3790   20.8803  -12.9207 C   0  0  0  0  0  0
  -21.0062   22.4441  -13.5685 S   0  0  0  0  0  0
  -19.8397   21.8498  -14.6301 C   0  0  0  0  0  0
  -19.7179   20.4693  -14.7029 C   0  0  0  0  0  0
  -18.6704   19.9325  -15.6692 C   0  0  0  0  0  0
  -18.8238   19.9985  -17.0740 C   0  0  0  0  0  0
  -17.8661   19.4779  -17.9758 C   0  0  0  0  0  0
  -16.6927   18.9016  -17.5165 C   0  0  0  0  0  0
  -16.4947   18.8377  -16.1596 C   0  0  0  0  0  0
  -17.4867   19.3042  -15.2865 C   0  0  0  0  0  0
  -22.2960   21.0004  -11.6826 C   0  0  0  0  0  0
  -22.3796   20.1089  -10.8361 O   0  0  0  0  0  0
  -22.9440   22.1883  -11.2783 N   0  0  0  0  0  0
  -21.8375   23.6365  -11.3000 N   0  0  0  0  0  0
  -22.7822   25.2459  -11.0731 C   0  0  0  0  0  0
  -22.8723   26.4529  -12.1182 C   0  0  0  0  0  0
  -24.6135   24.5380  -10.6456 C   0  0  0  0  0  0
  -24.5033   22.7132  -10.5471 C   0  0  0  0  0  0
  -24.3921   21.8634   -9.1532 C   0  0  0  0  0  0
  1  2  1  0  0  0
  2  3  1  0  0  0
  2 10  1  0  0  0
  3  4  2  0  0  0
  3  9  1  0  0  0
  4  5  1  0  0  0
  5  6  2  0  0  0
  6  7  1  0  0  0
  6  8  1  0  0  0
  8  9  2  0  0  0
 10 11  2  0  0  0
 10 12  2  0  0  0
 10 13  1  0  0  0
 13 14  2  0  0  0
 13 17  1  0  0  0
 14 15  1  0  0  0
 14 24  1  0  0  0
 15 16  1  0  0  0
 16 17  2  0  0  0
 17 18  1  0  0  0
 18 19  2  0  0  0
 18 23  1  0  0  0
 19 20  1  0  0  0
 20 21  2  0  0  0
 21 22  1  0  0  0
 22 23  2  0  0  0
 24 25  2  0  0  0
 24 26  1  0  0  0
 26 27  1  0  0  0
 26 31  1  0  0  0
 27 28  2  0  0  0
 28 29  1  0  0  0
 28 30  1  0  0  0
 30 31  2  0  0  0
 31 32  1  0  0  0
M  END
>  <CHROM.0>
-61.04543858,-72.42890847,-9.46237182,65.24518794,-31.22813606,-175.47964080
-36.57598330,-158.28825490

>  <CHROM.1>
-50.42568595,-173.82062164,142.09805193,18.04796438,112.75465750,-21.46111184
20.18734319,-14.07485310,1.11199828,-0.07643664,-2.37015044

>  <Name>
F3382-4448

>  <RI>
1.73817e+07

>  <Rbt.Current_Directory>
/home/adria/Escritorio/rDock_CMTR_LC/2pxcA_model/inputs_sah

>  <Rbt.Executable>
rbdock ($Id: //depot/dev/client3/rdock/2013.1/src/exe/rbdock.cxx#4 $)

>  <Rbt.Library>
libRbt.so (2013.1, Build901 2013/11/27)

>  <Rbt.Parameter_File>
/home/adria/Escritorio/rDock_2013.1_src/data/scripts/dock.prm

>  <Rbt.Receptor>
sah_rdock.prm

>  <SCORE>
-244.18

>  <SCORE.INTER>
-16.3679

>  <SCORE.INTER.CONST>
1

>  <SCORE.INTER.POLAR>
-0.760346

>  <SCORE.INTER.REPUL>
0

>  <SCORE.INTER.ROT>
5

>  <SCORE.INTER.VDW>
-24.1828

>  <SCORE.INTER.norm>
-0.511498

>  <SCORE.INTRA>
-220.443

>  <SCORE.INTRA.DIHEDRAL>
8.52347

>  <SCORE.INTRA.DIHEDRAL.0>
5.05771

>  <SCORE.INTRA.POLAR>
0

>  <SCORE.INTRA.POLAR.0>
0

>  <SCORE.INTRA.REPUL>
0

>  <SCORE.INTRA.REPUL.0>
0

>  <SCORE.INTRA.VDW>
-224.704

>  <SCORE.INTRA.VDW.0>
220.808

>  <SCORE.INTRA.norm>
-6.88883

>  <SCORE.RESTR>
0

>  <SCORE.RESTR.CAVITY>
0

>  <SCORE.RESTR.norm>
0

>  <SCORE.SYSTEM>
-7.3698

>  <SCORE.SYSTEM.CONST>
0

>  <SCORE.SYSTEM.DIHEDRAL>
9.52824

>  <SCORE.SYSTEM.POLAR>
-4.61661

>  <SCORE.SYSTEM.REPUL>
0.0374998

>  <SCORE.SYSTEM.VDW>
3.37506

>  <SCORE.SYSTEM.norm>
-0.230306

>  <SCORE.heavy>
32

>  <SCORE.norm>
-7.63064

$$$$
F3382-4448
  rDOCK(R)          3D
libRbt.so/2013.1/901 2013/11/27
 32 35  0  0  0  0  0  0  0  0999 V2000
  -20.5604   18.6588  -12.0344 C   0  0  0  0  0  0
  -20.1580   20.0211  -12.3954 N   0  0  0  0  0  0
  -20.9133   20.9136  -11.6728 C   0  0  0  0  0  0
  -22.5596   20.4710  -11.0745 C   0  0  0  0  0  0
  -23.6648   21.6461  -10.2979 C   0  0  0  0  0  0
  -23.2599   23.2705   -9.9890 C   0  0  0  0  0  0
  -24.1325   24.2117   -9.6053 F   0  0  0  0  0  0
  -21.7679   23.8548  -10.5885 C   0  0  0  0  0  0
  -20.3836   22.6564  -11.5810 C   0  0  0  0  0  0
  -19.9307   20.6236  -13.9515 S   0  0  0  0  0  0
  -21.0355   21.4860  -14.3230 O   0  0  0  0  0  0
  -18.6219   21.2149  -13.9458 O   0  0  0  0  0  0
  -20.0818   19.3515  -15.2095 C   0  0  0  0  0  0
  -18.9366   18.8997  -15.9751 C   0  0  0  0  0  0
  -19.4461   17.6524  -17.0653 S   0  0  0  0  0  0
  -21.0004   17.5674  -16.4189 C   0  0  0  0  0  0
  -21.3227   18.5179  -15.4604 C   0  0  0  0  0  0
  -22.7303   18.4467  -14.8836 C   0  0  0  0  0  0
  -23.6240   17.3914  -15.1814 C   0  0  0  0  0  0
  -24.9416   17.3340  -14.6693 C   0  0  0  0  0  0
  -25.4144   18.3085  -13.8050 C   0  0  0  0  0  0
  -24.5706   19.3390  -13.4729 C   0  0  0  0  0  0
  -23.2920   19.4059  -14.0427 C   0  0  0  0  0  0
  -17.4125   19.1338  -16.0782 C   0  0  0  0  0  0
  -16.8077   19.8825  -15.3087 O   0  0  0  0  0  0
  -16.5387   18.3751  -16.8878 N   0  0  0  0  0  0
  -16.8225   16.5807  -16.7407 N   0  0  0  0  0  0
  -15.8825   15.6113  -18.0488 C   0  0  0  0  0  0
  -16.5174   14.6870  -19.1888 C   0  0  0  0  0  0
  -14.7687   17.0746  -18.8586 C   0  0  0  0  0  0
  -15.0693   18.6065  -17.9021 C   0  0  0  0  0  0
  -14.0798   19.1800  -16.7320 C   0  0  0  0  0  0
  1  2  1  0  0  0
  2  3  1  0  0  0
  2 10  1  0  0  0
  3  4  2  0  0  0
  3  9  1  0  0  0
  4  5  1  0  0  0
  5  6  2  0  0  0
  6  7  1  0  0  0
  6  8  1  0  0  0
  8  9  2  0  0  0
 10 11  2  0  0  0
 10 12  2  0  0  0
 10 13  1  0  0  0
 13 14  2  0  0  0
 13 17  1  0  0  0
 14 15  1  0  0  0
 14 24  1  0  0  0
 15 16  1  0  0  0
 16 17  2  0  0  0
 17 18  1  0  0  0
 18 19  2  0  0  0
 18 23  1  0  0  0
 19 20  1  0  0  0
 20 21  2  0  0  0
 21 22  1  0  0  0
 22 23  2  0  0  0
 24 25  2  0  0  0
 24 26  1  0  0  0
 26 27  1  0  0  0
 26 31  1  0  0  0
 27 28  2  0  0  0
 28 29  1  0  0  0
 28 30  1  0  0  0
 30 31  2  0  0  0
 31 32  1  0  0  0
M  END
>  <CHROM.0>
40.56125209,-167.63863738,-11.45859041,-61.60650351,-31.03374803,65.75754141
-156.08015465,-52.09446482

>  <CHROM.1>
-26.40853747,105.39265441,-111.03993747,3.35040949,-169.15044335,-20.13595656
19.42887466,-14.51730642,-2.32914644,-0.25390021,-2.41838501

>  <Name>
F3382-4448

>  <RI>
1.73817e+07

>  <Rbt.Current_Directory>
/home/adria/Escritorio/rDock_CMTR_LC/2pxcA_model/inputs_sah

>  <Rbt.Executable>
rbdock ($Id: //depot/dev/client3/rdock/2013.1/src/exe/rbdock.cxx#4 $)

>  <Rbt.Library>
libRbt.so (2013.1, Build901 2013/11/27)

>  <Rbt.Parameter_File>
/home/adria/Escritorio/rDock_2013.1_src/data/scripts/dock.prm

>  <Rbt.Receptor>
sah_rdock.prm

>  <SCORE>
-230.029

>  <SCORE.INTER>
-7.22876

>  <SCORE.INTER.CONST>
1

>  <SCORE.INTER.POLAR>
0

>  <SCORE.INTER.REPUL>
0.159241

>  <SCORE.INTER.ROT>
5

>  <SCORE.INTER.VDW>
-18.425

>  <SCORE.INTER.norm>
-0.225899

>  <SCORE.INTRA>
-223.503

>  <SCORE.INTRA.DIHEDRAL>
-0.956357

>  <SCORE.INTRA.DIHEDRAL.0>
5.05771

>  <SCORE.INTRA.POLAR>
0

>  <SCORE.INTRA.POLAR.0>
0

>  <SCORE.INTRA.REPUL>
0

>  <SCORE.INTRA.REPUL.0>
0

>  <SCORE.INTRA.VDW>
-223.024

>  <SCORE.INTRA.VDW.0>
220.808

>  <SCORE.INTRA.norm>
-6.98445

>  <SCORE.RESTR>
0

>  <SCORE.RESTR.CAVITY>
0

>  <SCORE.RESTR.norm>
0

>  <SCORE.SYSTEM>
0.702086

>  <SCORE.SYSTEM.CONST>
0

>  <SCORE.SYSTEM.DIHEDRAL>
13.445

>  <SCORE.SYSTEM.POLAR>
-3.89903

>  <SCORE.SYSTEM.REPUL>
0.127711

>  <SCORE.SYSTEM.VDW>
6.59773

>  <SCORE.SYSTEM.norm>
0.0219402

>  <SCORE.heavy>
32

>  <SCORE.norm>
-7.18841

$$$$
F3382-4448
  rDOCK(R)          3D
libRbt.so/2013.1/901 2013/11/27
 32 35  0  0  0  0  0  0  0  0999 V2000
  -22.4819   18.1355  -14.9290 C   0  0  0  0  0  0
  -22.0983   18.1533  -13.5145 N   0  0  0  0  0  0
  -23.1095   18.7345  -12.7874 C   0  0  0  0  0  0
  -23.9788   17.8137  -11.4987 C   0  0  0  0  0  0
  -25.4240   18.4466  -10.6524 C   0  0  0  0  0  0
  -26.0853   19.9911  -10.9265 C   0  0  0  0  0  0
  -27.2738   20.4020  -10.4648 F   0  0  0  0  0  0
  -25.4224   20.9366  -12.1888 C   0  0  0  0  0  0
  -23.7875   20.3379  -13.3316 C   0  0  0  0  0  0
  -20.6148   18.6367  -12.8808 S   0  0  0  0  0  0
  -20.8092   19.3485  -11.6327 O   0  0  0  0  0  0
  -19.8144   17.4454  -12.8284 O   0  0  0  0  0  0
  -19.8343   19.9213  -13.8626 C   0  0  0  0  0  0
  -18.9368   19.6030  -14.9557 C   0  0  0  0  0  0
  -18.4019   21.0783  -15.6916 S   0  0  0  0  0  0
  -19.4443   22.0409  -14.7818 C   0  0  0  0  0  0
  -20.1628   21.3990  -13.7830 C   0  0  0  0  0  0
  -21.0974   22.2709  -12.9550 C   0  0  0  0  0  0
  -21.6014   21.8672  -11.6963 C   0  0  0  0  0  0
  -22.4906   22.6619  -10.9351 C   0  0  0  0  0  0
  -22.8871   23.9134  -11.3783 C   0  0  0  0  0  0
  -22.4028   24.3523  -12.5855 C   0  0  0  0  0  0
  -21.5730   23.5202  -13.3492 C   0  0  0  0  0  0
  -18.3648   18.3758  -15.7009 C   0  0  0  0  0  0
  -19.0691   17.4222  -16.0368 O   0  0  0  0  0  0
  -17.0690   18.3101  -16.2587 N   0  0  0  0  0  0
  -16.6384   19.7997  -17.2167 N   0  0  0  0  0  0
  -14.8161   19.8363  -17.6772 C   0  0  0  0  0  0
  -13.7429   20.9347  -17.2313 C   0  0  0  0  0  0
  -14.2499   18.0045  -17.0759 C   0  0  0  0  0  0
  -15.7412   17.1169  -16.4929 C   0  0  0  0  0  0
  -16.5778   16.0249  -17.3789 C   0  0  0  0  0  0
  1  2  1  0  0  0
  2  3  1  0  0  0
  2 10  1  0  0  0
  3  4  2  0  0  0
  3  9  1  0  0  0
  4  5  1  0  0  0
  5  6  2  0  0  0
  6  7  1  0  0  0
  6  8  1  0  0  0
  8  9  2  0  0  0
 10 11  2  0  0  0
 10 12  2  0  0  0
 10 13  1  0  0  0
 13 14  2  0  0  0
 13 17  1  0  0  0
 14 15  1  0  0  0
 14 24  1  0  0  0
 15 16  1  0  0  0
 16 17  2  0  0  0
 17 18  1  0  0  0
 18 19  2  0  0  0
 18 23  1  0  0  0
 19 20  1  0  0  0
 20 21  2  0  0  0
 21 22  1  0  0  0
 22 23  2  0  0  0
 24 25  2  0  0  0
 24 26  1  0  0  0
 26 27  1  0  0  0
 26 31  1  0  0  0
 27 28  2  0  0  0
 28 29  1  0  0  0
 28 30  1  0  0  0
 30 31  2  0  0  0
 31 32  1  0  0  0
M  END
>  <CHROM.0>
-179.04125719,-166.90257215,-46.57484229,-63.55146577,168.47124302,-57.46610413
-36.35758168,-169.05450677

>  <CHROM.1>
118.71832924,142.21104121,-89.85099389,44.27239380,22.02091998,-20.45871312
19.84607090,-13.91270362,2.89413545,0.53596660,0.12863801

>  <Name>
F3382-4448

>  <RI>
1.73817e+07

>  <Rbt.Current_Directory>
/home/adria/Escritorio/rDock_CMTR_LC/2pxcA_model/inputs_sah

>  <Rbt.Executable>
rbdock ($Id: //depot/dev/client3/rdock/2013.1/src/exe/rbdock.cxx#4 $)

>  <Rbt.Library>
libRbt.so (2013.1, Build901 2013/11/27)

>  <Rbt.Parameter_File>
/home/adria/Escritorio/rDock_2013.1_src/data/scripts/dock.prm

>  <Rbt.Receptor>
sah_rdock.prm

>  <SCORE>
-240.728

>  <SCORE.INTER>
-19.006

>  <SCORE.INTER.CONST>
1

>  <SCORE.INTER.POLAR>
-1.67315

>  <SCORE.INTER.REPUL>
0.0515988

>  <SCORE.INTER.ROT>
5

>  <SCORE.INTER.VDW>
-23.9753

>  <SCORE.INTER.norm>
-0.593939

>  <SCORE.INTRA>
-220.886

>  <SCORE.INTRA.DIHEDRAL>
4.46872

>  <SCORE.INTRA.DIHEDRAL.0>
5.05771

>  <SCORE.INTRA.POLAR>
0

>  <SCORE.INTRA.POLAR.0>
0

>  <SCORE.INTRA.REPUL>
0

>  <SCORE.INTRA.REPUL.0>
0

>  <SCORE.INTRA.VDW>
-223.12

>  <SCORE.INTRA.VDW.0>
220.808

>  <SCORE.INTRA.norm>
-6.90268

>  <SCORE.RESTR>
0

>  <SCORE.RESTR.CAVITY>
0

>  <SCORE.RESTR.norm>
0

>  <SCORE.SYSTEM>
-0.835682

>  <SCORE.SYSTEM.CONST>
0

>  <SCORE.SYSTEM.DIHEDRAL>
3.34407

>  <SCORE.SYSTEM.POLAR>
-3.55755

>  <SCORE.SYSTEM.VDW>
9.58797

>  <SCORE.SYSTEM.norm>
-0.0261151

>  <SCORE.heavy>
32

>  <SCORE.norm>
-7.52274

$$$$
F3382-4448
  rDOCK(R)          3D
libRbt.so/2013.1/901 2013/11/27
 32 35  0  0  0  0  0  0  0  0999 V2000
  -22.9012   17.1059  -14.4238 C   0  0  0  0  0  0
  -22.4878   17.3490  -13.0388 N   0  0  0  0  0  0
  -23.4396   18.1245  -12.4208 C   0  0  0  0  0  0
  -24.4068   17.4849  -11.0354 C   0  0  0  0  0  0
  -25.7860   18.3713  -10.3157 C   0  0  0  0  0  0
  -26.2847   19.9203  -10.8155 C   0  0  0  0  0  0
  -27.4283   20.5085  -10.4405 F   0  0  0  0  0  0
  -25.5202   20.6085  -12.1826 C   0  0  0  0  0  0
  -23.9470   19.6952  -13.1965 C   0  0  0  0  0  0
  -20.9607   17.8273  -12.5143 S   0  0  0  0  0  0
  -20.9225   17.8873  -11.0662 O   0  0  0  0  0  0
  -20.0386   16.9277  -13.1493 O   0  0  0  0  0  0
  -20.6026   19.5406  -12.9143 C   0  0  0  0  0  0
  -21.1873   20.6347  -12.1641 C   0  0  0  0  0  0
  -20.5976   22.1335  -12.8042 S   0  0  0  0  0  0
  -19.4942   21.3873  -13.8370 C   0  0  0  0  0  0
  -19.5528   20.0024  -13.9056 C   0  0  0  0  0  0
  -18.5621   19.3291  -14.8461 C   0  0  0  0  0  0
  -18.5908   17.9410  -15.1174 C   0  0  0  0  0  0
  -17.6567   17.3063  -15.9695 C   0  0  0  0  0  0
  -16.6744   18.0351  -16.6205 C   0  0  0  0  0  0
  -16.6257   19.3894  -16.4016 C   0  0  0  0  0  0
  -17.5232   19.9844  -15.5045 C   0  0  0  0  0  0
  -22.1096   20.8788  -10.9484 C   0  0  0  0  0  0
  -22.1907   20.0813  -10.0126 O   0  0  0  0  0  0
  -22.7667   22.0985  -10.6739 N   0  0  0  0  0  0
  -21.6693   23.5436  -10.8454 N   0  0  0  0  0  0
  -22.6251   25.1616  -10.7928 C   0  0  0  0  0  0
  -22.7189   26.2507  -11.9599 C   0  0  0  0  0  0
  -24.4535   24.4906  -10.2983 C   0  0  0  0  0  0
  -24.3320   22.6872  -10.0070 C   0  0  0  0  0  0
  -24.2206   21.9903   -8.5308 C   0  0  0  0  0  0
  1  2  1  0  0  0
  2  3  1  0  0  0
  2 10  1  0  0  0
  3  4  2  0  0  0
  3  9  1  0  0  0
  4  5  1  0  0  0
  5  6  2  0  0  0
  6  7  1  0  0  0
  6  8  1  0  0  0
  8  9  2  0  0  0
 10 11  2  0  0  0
 10 12  2  0  0  0
 10 13  1  0  0  0
 13 14  2  0  0  0
 13 17  1  0  0  0
 14 15  1  0  0  0
 14 24  1  0  0  0
 15 16  1  0  0  0
 16 17  2  0  0  0
 17 18  1  0  0  0
 18 19  2  0  0  0
 18 23  1  0  0  0
 19 20  1  0  0  0
 20 21  2  0  0  0
 21 22  1  0  0  0
 22 23  2  0  0  0
 24 25  2  0  0  0
 24 26  1  0  0  0
 26 27  1  0  0  0
 26 31  1  0  0  0
 27 28  2  0  0  0
 28 29  1  0  0  0
 28 30  1  0  0  0
 30 31  2  0  0  0
 31 32  1  0  0  0
M  END
>  <CHROM.0>
-60.80525540,65.78492948,-46.86241265,62.16453713,168.53291948,178.53780827
65.51805032,-164.57400700

>  <CHROM.1>
115.43495738,-176.63741570,75.96520084,27.99494066,10.25586760,-21.81029014
20.11793410,-12.42196662,0.54585725,-0.53399003,-2.92350791

>  <Name>
F3382-4448

>  <RI>
1.73817e+07

>  <Rbt.Current_Directory>
/home/adria/Escritorio/rDock_CMTR_LC/2pxcA_model/inputs_sah

>  <Rbt.Executable>
rbdock ($Id: //depot/dev/client3/rdock/2013.1/src/exe/rbdock.cxx#4 $)

>  <Rbt.Library>
libRbt.so (2013.1, Build901 2013/11/27)

>  <Rbt.Parameter_File>
/home/adria/Escritorio/rDock_2013.1_src/data/scripts/dock.prm

>  <Rbt.Receptor>
sah_rdock.prm

>  <SCORE>
-242.012

>  <SCORE.INTER>
-16.031

>  <SCORE.INTER.CONST>
1

>  <SCORE.INTER.POLAR>
-1.27152

>  <SCORE.INTER.REPUL>
0.181145

>  <SCORE.INTER.ROT>
5

>  <SCORE.INTER.VDW>
-23.0135

>  <SCORE.INTER.norm>
-0.500967

>  <SCORE.INTRA>
-224.529

>  <SCORE.INTRA.DIHEDRAL>
-0.835663

>  <SCORE.INTRA.DIHEDRAL.0>
5.05771

>  <SCORE.INTRA.POLAR>
0

>  <SCORE.INTRA.POLAR.0>
0

>  <SCORE.INTRA.REPUL>
0

>  <SCORE.INTRA.REPUL.0>
0

>  <SCORE.INTRA.VDW>
-224.111

>  <SCORE.INTRA.VDW.0>
220.808

>  <SCORE.INTRA.norm>
-7.01652

>  <SCORE.RESTR>
0

>  <SCORE.RESTR.CAVITY>
0

>  <SCORE.RESTR.norm>
0

>  <SCORE.SYSTEM>
-1.45251

>  <SCORE.SYSTEM.CONST>
0

>  <SCORE.SYSTEM.DIHEDRAL>
1.64921

>  <SCORE.SYSTEM.POLAR>
-3.0954

>  <SCORE.SYSTEM.VDW>
8.24726

>  <SCORE.SYSTEM.norm>
-0.0453909

>  <SCORE.heavy>
32

>  <SCORE.norm>
-7.56288

$$$$
F3382-4448
  rDOCK(R)          3D
libRbt.so/2013.1/901 2013/11/27
 32 35  0  0  0  0  0  0  0  0999 V2000
  -19.6867   22.3751  -14.6230 C   0  0  0  0  0  0
  -20.5133   22.0489  -13.4576 N   0  0  0  0  0  0
  -20.7747   23.2045  -12.7609 C   0  0  0  0  0  0
  -19.8638   23.6107  -11.2544 C   0  0  0  0  0  0
  -20.2857   24.9962  -10.2019 C   0  0  0  0  0  0
  -21.5363   26.1004  -10.5404 C   0  0  0  0  0  0
  -22.0022   27.0102   -9.6745 F   0  0  0  0  0  0
  -22.5454   25.7841  -11.8853 C   0  0  0  0  0  0
  -22.2564   24.1808  -13.1826 C   0  0  0  0  0  0
  -20.2611   20.7916  -12.3659 S   0  0  0  0  0  0
  -18.8570   20.7044  -12.0152 O   0  0  0  0  0  0
  -21.1833   21.0276  -11.2904 O   0  0  0  0  0  0
  -20.5051   19.1762  -13.1105 C   0  0  0  0  0  0
  -19.5726   18.6379  -14.0812 C   0  0  0  0  0  0
  -20.1050   17.0582  -14.5560 S   0  0  0  0  0  0
  -21.3384   17.0067  -13.4084 C   0  0  0  0  0  0
  -21.5551   18.1699  -12.6831 C   0  0  0  0  0  0
  -22.6759   18.1259  -11.6530 C   0  0  0  0  0  0
  -22.9070   19.1747  -10.7322 C   0  0  0  0  0  0
  -23.9300   19.1274   -9.7562 C   0  0  0  0  0  0
  -24.7941   18.0469   -9.6798 C   0  0  0  0  0  0
  -24.6178   17.0172  -10.5702 C   0  0  0  0  0  0
  -23.5583   17.0600  -11.4865 C   0  0  0  0  0  0
  -18.2367   18.9996  -14.7689 C   0  0  0  0  0  0
  -17.4511   19.8198  -14.2911 O   0  0  0  0  0  0
  -17.6815   18.2958  -15.8602 N   0  0  0  0  0  0
  -17.7215   16.4887  -15.6264 N   0  0  0  0  0  0
  -17.2802   15.5663  -17.2040 C   0  0  0  0  0  0
  -18.2216   14.5577  -18.0126 C   0  0  0  0  0  0
  -16.7070   17.0960  -18.3740 C   0  0  0  0  0  0
  -16.7499   18.6235  -17.3657 C   0  0  0  0  0  0
  -15.4398   19.3142  -16.6700 C   0  0  0  0  0  0
  1  2  1  0  0  0
  2  3  1  0  0  0
  2 10  1  0  0  0
  3  4  2  0  0  0
  3  9  1  0  0  0
  4  5  1  0  0  0
  5  6  2  0  0  0
  6  7  1  0  0  0
  6  8  1  0  0  0
  8  9  2  0  0  0
 10 11  2  0  0  0
 10 12  2  0  0  0
 10 13  1  0  0  0
 13 14  2  0  0  0
 13 17  1  0  0  0
 14 15  1  0  0  0
 14 24  1  0  0  0
 15 16  1  0  0  0
 16 17  2  0  0  0
 17 18  1  0  0  0
 18 19  2  0  0  0
 18 23  1  0  0  0
 19 20  1  0  0  0
 20 21  2  0  0  0
 21 22  1  0  0  0
 22 23  2  0  0  0
 24 25  2  0  0  0
 24 26  1  0  0  0
 26 27  1  0  0  0
 26 31  1  0  0  0
 27 28  2  0  0  0
 28 29  1  0  0  0
 28 30  1  0  0  0
 30 31  2  0  0  0
 31 32  1  0  0  0
M  END
>  <CHROM.0>
39.57034879,66.92266174,-129.19899814,66.78365377,167.63112673,-57.41190888
83.38982671,-166.71524173

>  <CHROM.1>
-101.52551843,43.29996494,70.61559938,20.88384478,-3.86598210,-20.28949390
19.97417841,-13.22552558,-2.15662907,-0.70713684,-2.86414956

>  <Name>
F3382-4448

>  <RI>
1.73817e+07

>  <Rbt.Current_Directory>
/home/adria/Escritorio/rDock_CMTR_LC/2pxcA_model/inputs_sah

>  <Rbt.Executable>
rbdock ($Id: //depot/dev/client3/rdock/2013.1/src/exe/rbdock.cxx#4 $)

>  <Rbt.Library>
libRbt.so (2013.1, Build901 2013/11/27)

>  <Rbt.Parameter_File>
/home/adria/Escritorio/rDock_2013.1_src/data/scripts/dock.prm

>  <Rbt.Receptor>
sah_rdock.prm

>  <SCORE>
-238.086

>  <SCORE.INTER>
-18.0362

>  <SCORE.INTER.CONST>
1

>  <SCORE.INTER.POLAR>
0

>  <SCORE.INTER.REPUL>
0

>  <SCORE.INTER.ROT>
5

>  <SCORE.INTER.VDW>
-28.4362

>  <SCORE.INTER.norm>
-0.563632

>  <SCORE.INTRA>
-222.681

>  <SCORE.INTRA.DIHEDRAL>
-1.63181

>  <SCORE.INTRA.DIHEDRAL.0>
5.05771

>  <SCORE.INTRA.POLAR>
0

>  <SCORE.INTRA.POLAR.0>
0

>  <SCORE.INTRA.REPUL>
0

>  <SCORE.INTRA.REPUL.0>
0

>  <SCORE.INTRA.VDW>
-221.865

>  <SCORE.INTRA.VDW.0>
220.808

>  <SCORE.INTRA.norm>
-6.95877

>  <SCORE.RESTR>
0

>  <SCORE.RESTR.CAVITY>
0

>  <SCORE.RESTR.norm>
0

>  <SCORE.SYSTEM>
2.63076

>  <SCORE.SYSTEM.CONST>
0

>  <SCORE.SYSTEM.DIHEDRAL>
7.91281

>  <SCORE.SYSTEM.POLAR>
-4.03478

>  <SCORE.SYSTEM.REPUL>
0.124593

>  <SCORE.SYSTEM.VDW>
11.7697

>  <SCORE.SYSTEM.norm>
0.0822114

>  <SCORE.heavy>
32

>  <SCORE.norm>
-7.44019

$$$$
F3382-4448
  rDOCK(R)          3D
libRbt.so/2013.1/901 2013/11/27
 32 35  0  0  0  0  0  0  0  0999 V2000
  -23.4566   16.2172  -13.3727 C   0  0  0  0  0  0
  -22.4618   17.2927  -13.4175 N   0  0  0  0  0  0
  -22.7532   18.2084  -12.4348 C   0  0  0  0  0  0
  -21.4983   18.7278  -11.2433 C   0  0  0  0  0  0
  -21.8633   19.7651   -9.8304 C   0  0  0  0  0  0
  -23.4019   20.4148   -9.5008 C   0  0  0  0  0  0
  -23.7443   21.0130   -8.3521 F   0  0  0  0  0  0
  -24.7087   19.9284  -10.4921 C   0  0  0  0  0  0
  -24.4925   18.6698  -12.1372 C   0  0  0  0  0  0
  -21.9230   18.1079  -14.7890 S   0  0  0  0  0  0
  -21.4598   17.1628  -15.7862 O   0  0  0  0  0  0
  -23.0047   18.9725  -15.1701 O   0  0  0  0  0  0
  -20.4090   19.0261  -14.4919 C   0  0  0  0  0  0
  -19.1234   18.5430  -14.9563 C   0  0  0  0  0  0
  -17.9010   19.6925  -14.5223 S   0  0  0  0  0  0
  -19.0116   20.8319  -13.9662 C   0  0  0  0  0  0
  -20.3388   20.4286  -13.9212 C   0  0  0  0  0  0
  -21.3408   21.4552  -13.4098 C   0  0  0  0  0  0
  -21.0094   22.8180  -13.2251 C   0  0  0  0  0  0
  -21.9285   23.7703  -12.7254 C   0  0  0  0  0  0
  -23.2329   23.4132  -12.4235 C   0  0  0  0  0  0
  -23.6017   22.1041  -12.6097 C   0  0  0  0  0  0
  -22.6552   21.1674  -13.0465 C   0  0  0  0  0  0
  -18.5179   17.3712  -15.7615 C   0  0  0  0  0  0
  -19.1870   16.3975  -16.1117 O   0  0  0  0  0  0
  -17.2378   17.3866  -16.3581 N   0  0  0  0  0  0
  -16.9060   18.9275  -17.2733 N   0  0  0  0  0  0
  -15.1021   19.0667  -17.7839 C   0  0  0  0  0  0
  -14.0681   20.1986  -17.3291 C   0  0  0  0  0  0
  -14.4336   17.2439  -17.2660 C   0  0  0  0  0  0
  -15.8638   16.2667  -16.6733 C   0  0  0  0  0  0
  -16.6752   15.1679  -17.5743 C   0  0  0  0  0  0
  1  2  1  0  0  0
  2  3  1  0  0  0
  2 10  1  0  0  0
  3  4  2  0  0  0
  3  9  1  0  0  0
  4  5  1  0  0  0
  5  6  2  0  0  0
  6  7  1  0  0  0
  6  8  1  0  0  0
  8  9  2  0  0  0
 10 11  2  0  0  0
 10 12  2  0  0  0
 10 13  1  0  0  0
 13 14  2  0  0  0
 13 17  1  0  0  0
 14 15  1  0  0  0
 14 24  1  0  0  0
 15 16  1  0  0  0
 16 17  2  0  0  0
 17 18  1  0  0  0
 18 19  2  0  0  0
 18 23  1  0  0  0
 19 20  1  0  0  0
 20 21  2  0  0  0
 21 22  1  0  0  0
 22 23  2  0  0  0
 24 25  2  0  0  0
 24 26  1  0  0  0
 26 27  1  0  0  0
 26 31  1  0  0  0
 27 28  2  0  0  0
 28 29  1  0  0  0
 28 30  1  0  0  0
 30 31  2  0  0  0
 31 32  1  0  0  0
M  END
>  <CHROM.0>
-176.08986764,66.24949723,-44.71095513,-64.27410414,-31.39393231,-66.55546273
-37.63134951,-162.63501682

>  <CHROM.1>
127.67874015,-53.48896050,103.42983336,-7.87852332,-164.45838517,-20.40752963
19.17433784,-14.04346062,2.61431161,0.53286052,0.38970015

>  <Name>
F3382-4448

>  <RI>
1.73817e+07

>  <Rbt.Current_Directory>
/home/adria/Escritorio/rDock_CMTR_LC/2pxcA_model/inputs_sah

>  <Rbt.Executable>
rbdock ($Id: //depot/dev/client3/rdock/2013.1/src/exe/rbdock.cxx#4 $)

>  <Rbt.Library>
libRbt.so (2013.1, Build901 2013/11/27)

>  <Rbt.Parameter_File>
/home/adria/Escritorio/rDock_2013.1_src/data/scripts/dock.prm

>  <Rbt.Receptor>
sah_rdock.prm

>  <SCORE>
-244.2

>  <SCORE.INTER>
-12.529

>  <SCORE.INTER.CONST>
1

>  <SCORE.INTER.POLAR>
0

>  <SCORE.INTER.REPUL>
0.114366

>  <SCORE.INTER.ROT>
5

>  <SCORE.INTER.VDW>
-23.5009

>  <SCORE.INTER.norm>
-0.391532

>  <SCORE.INTRA>
-225.221

>  <SCORE.INTRA.DIHEDRAL>
-1.76883

>  <SCORE.INTRA.DIHEDRAL.0>
5.05771

>  <SCORE.INTRA.POLAR>
0

>  <SCORE.INTRA.POLAR.0>
0

>  <SCORE.INTRA.REPUL>
0

>  <SCORE.INTRA.REPUL.0>
0

>  <SCORE.INTRA.VDW>
-224.336

>  <SCORE.INTRA.VDW.0>
220.808

>  <SCORE.INTRA.norm>
-7.03814

>  <SCORE.RESTR>
0

>  <SCORE.RESTR.CAVITY>
0

>  <SCORE.RESTR.norm>
0

>  <SCORE.SYSTEM>
-6.45018

>  <SCORE.SYSTEM.CONST>
0

>  <SCORE.SYSTEM.DIHEDRAL>
5.87218

>  <SCORE.SYSTEM.POLAR>
-3.6408

>  <SCORE.SYSTEM.VDW>
2.99246

>  <SCORE.SYSTEM.norm>
-0.201568

>  <SCORE.heavy>
32

>  <SCORE.norm>
-7.63124

$$$$
F3382-4448
  rDOCK(R)          3D
libRbt.so/2013.1/901 2013/11/27
 32 35  0  0  0  0  0  0  0  0999 V2000
  -22.9224   16.6834  -13.1462 C   0  0  0  0  0  0
  -22.1870   17.8398  -13.6658 N   0  0  0  0  0  0
  -22.8446   18.3243  -14.7712 C   0  0  0  0  0  0
  -22.0211   18.4237  -16.3762 C   0  0  0  0  0  0
  -22.7552   19.2186  -17.8027 C   0  0  0  0  0  0
  -24.3147   19.9011  -17.8125 C   0  0  0  0  0  0
  -24.7988   20.6769  -18.7914 F   0  0  0  0  0  0
  -25.1733   19.9648  -16.3341 C   0  0  0  0  0  0
  -24.4518   19.1589  -14.5544 C   0  0  0  0  0  0
  -20.5259   17.9425  -13.9230 S   0  0  0  0  0  0
  -19.8105   17.7294  -12.6800 O   0  0  0  0  0  0
  -20.2472   17.0281  -14.9949 O   0  0  0  0  0  0
  -19.9936   19.6116  -14.3155 C   0  0  0  0  0  0
  -20.6907   20.7731  -13.7992 C   0  0  0  0  0  0
  -19.8854   22.2044  -14.3534 S   0  0  0  0  0  0
  -18.5988   21.3527  -15.0318 C   0  0  0  0  0  0
  -18.7082   19.9692  -15.0350 C   0  0  0  0  0  0
  -17.5498   19.2005  -15.6567 C   0  0  0  0  0  0
  -16.4414   19.8441  -16.2555 C   0  0  0  0  0  0
  -15.3756   19.1350  -16.8576 C   0  0  0  0  0  0
  -15.3488   17.7496  -16.8554 C   0  0  0  0  0  0
  -16.3953   17.0862  -16.2645 C   0  0  0  0  0  0
  -17.4692   17.8111  -15.7303 C   0  0  0  0  0  0
  -21.8732   21.1301  -12.8703 C   0  0  0  0  0  0
  -22.7830   20.3353  -12.6276 O   0  0  0  0  0  0
  -21.9282   22.2777  -12.0490 N   0  0  0  0  0  0
  -20.3831   22.5556  -11.1231 N   0  0  0  0  0  0
  -20.3554   24.2420  -10.2926 C   0  0  0  0  0  0
  -19.3178   25.4256  -10.5746 C   0  0  0  0  0  0
  -22.2390   24.8508  -10.6380 C   0  0  0  0  0  0
  -23.1318   23.4810  -11.4616 C   0  0  0  0  0  0
  -24.1363   22.4371  -10.7010 C   0  0  0  0  0  0
  1  2  1  0  0  0
  2  3  1  0  0  0
  2 10  1  0  0  0
  3  4  2  0  0  0
  3  9  1  0  0  0
  4  5  1  0  0  0
  5  6  2  0  0  0
  6  7  1  0  0  0
  6  8  1  0  0  0
  8  9  2  0  0  0
 10 11  2  0  0  0
 10 12  2  0  0  0
 10 13  1  0  0  0
 13 14  2  0  0  0
 13 17  1  0  0  0
 14 15  1  0  0  0
 14 24  1  0  0  0
 15 16  1  0  0  0
 16 17  2  0  0  0
 17 18  1  0  0  0
 18 19  2  0  0  0
 18 23  1  0  0  0
 19 20  1  0  0  0
 20 21  2  0  0  0
 21 22  1  0  0  0
 22 23  2  0  0  0
 24 25  2  0  0  0
 24 26  1  0  0  0
 26 27  1  0  0  0
 26 31  1  0  0  0
 27 28  2  0  0  0
 28 29  1  0  0  0
 28 30  1  0  0  0
 30 31  2  0  0  0
 31 32  1  0  0  0
M  END
>  <CHROM.0>
-63.23330920,-72.62731498,-42.26853431,63.51024364,-29.99018546,-178.93583142
-35.62275694,-50.30515631

>  <CHROM.1>
-121.22651177,-59.71634685,30.12153857,-22.39327029,-178.74232771,-20.79600438
20.11532139,-14.27711733,1.01505793,0.04956761,-2.37036373

>  <Name>
F3382-4448

>  <RI>
1.73817e+07

>  <Rbt.Current_Directory>
/home/adria/Escritorio/rDock_CMTR_LC/2pxcA_model/inputs_sah

>  <Rbt.Executable>
rbdock ($Id: //depot/dev/client3/rdock/2013.1/src/exe/rbdock.cxx#4 $)

>  <Rbt.Library>
libRbt.so (2013.1, Build901 2013/11/27)

>  <Rbt.Parameter_File>
/home/adria/Escritorio/rDock_2013.1_src/data/scripts/dock.prm

>  <Rbt.Receptor>
sah_rdock.prm

>  <SCORE>
-249.156

>  <SCORE.INTER>
-19.2094

>  <SCORE.INTER.CONST>
1

>  <SCORE.INTER.POLAR>
-0.824621

>  <SCORE.INTER.REPUL>
0.0316857

>  <SCORE.INTER.ROT>
5

>  <SCORE.INTER.VDW>
-26.9642

>  <SCORE.INTER.norm>
-0.600295

>  <SCORE.INTRA>
-224.547

>  <SCORE.INTRA.DIHEDRAL>
-1.35698

>  <SCORE.INTRA.DIHEDRAL.0>
5.05771

>  <SCORE.INTRA.POLAR>
0

>  <SCORE.INTRA.POLAR.0>
0

>  <SCORE.INTRA.REPUL>
0

>  <SCORE.INTRA.REPUL.0>
0

>  <SCORE.INTRA.VDW>
-223.869

>  <SCORE.INTRA.VDW.0>
220.808

>  <SCORE.INTRA.norm>
-7.0171

>  <SCORE.RESTR>
0

>  <SCORE.RESTR.CAVITY>
0

>  <SCORE.RESTR.norm>
0

>  <SCORE.SYSTEM>
-5.39886

>  <SCORE.SYSTEM.CONST>
0

>  <SCORE.SYSTEM.DIHEDRAL>
9.31444

>  <SCORE.SYSTEM.POLAR>
-3.68404

>  <SCORE.SYSTEM.REPUL>
0.0488444

>  <SCORE.SYSTEM.VDW>
2.22542

>  <SCORE.SYSTEM.norm>
-0.168714

>  <SCORE.heavy>
32

>  <SCORE.norm>
-7.78611

$$$$
F3382-4448
  rDOCK(R)          3D
libRbt.so/2013.1/901 2013/11/27
 32 35  0  0  0  0  0  0  0  0999 V2000
  -24.2074   22.9653  -13.2708 C   0  0  0  0  0  0
  -23.1519   22.4101  -12.4189 N   0  0  0  0  0  0
  -22.6988   23.3952  -11.5742 C   0  0  0  0  0  0
  -23.1983   23.4367   -9.8384 C   0  0  0  0  0  0
  -22.7995   24.7931   -8.7398 C   0  0  0  0  0  0
  -21.8645   26.1410   -9.1948 C   0  0  0  0  0  0
  -21.7301   27.2549   -8.4629 F   0  0  0  0  0  0
  -21.4040   26.2823  -10.8365 C   0  0  0  0  0  0
  -21.8390   24.8422  -12.2766 C   0  0  0  0  0  0
  -21.8480   21.4683  -12.9178 S   0  0  0  0  0  0
  -21.1330   22.1285  -13.9925 O   0  0  0  0  0  0
  -21.1024   21.1834  -11.7238 O   0  0  0  0  0  0
  -22.3658   19.9664  -13.7543 C   0  0  0  0  0  0
  -23.6887   19.4060  -13.5608 C   0  0  0  0  0  0
  -23.8467   17.9862  -14.5424 S   0  0  0  0  0  0
  -22.3709   18.2242  -15.3210 C   0  0  0  0  0  0
  -21.5837   19.2640  -14.8464 C   0  0  0  0  0  0
  -20.2461   19.4727  -15.5440 C   0  0  0  0  0  0
  -19.2596   20.3592  -15.0520 C   0  0  0  0  0  0
  -18.0263   20.5766  -15.7102 C   0  0  0  0  0  0
  -17.7054   19.8894  -16.8699 C   0  0  0  0  0  0
  -18.6269   19.0025  -17.3688 C   0  0  0  0  0  0
  -19.8664   18.8517  -16.7325 C   0  0  0  0  0  0
  -25.0066   19.7087  -12.8125 C   0  0  0  0  0  0
  -26.1120   19.4799  -13.3066 O   0  0  0  0  0  0
  -25.0899   20.0568  -11.4463 N   0  0  0  0  0  0
  -24.0744   18.9804  -10.3822 N   0  0  0  0  0  0
  -23.9431   19.6474   -8.6295 C   0  0  0  0  0  0
  -22.6046   20.0987   -7.8799 C   0  0  0  0  0  0
  -25.2553   21.1667   -8.7170 C   0  0  0  0  0  0
  -26.0496   21.1309  -10.3661 C   0  0  0  0  0  0
  -27.5250   20.4931  -10.6727 C   0  0  0  0  0  0
  1  2  1  0  0  0
  2  3  1  0  0  0
  2 10  1  0  0  0
  3  4  2  0  0  0
  3  9  1  0  0  0
  4  5  1  0  0  0
  5  6  2  0  0  0
  6  7  1  0  0  0
  6  8  1  0  0  0
  8  9  2  0  0  0
 10 11  2  0  0  0
 10 12  2  0  0  0
 10 13  1  0  0  0
 13 14  2  0  0  0
 13 17  1  0  0  0
 14 15  1  0  0  0
 14 24  1  0  0  0
 15 16  1  0  0  0
 16 17  2  0  0  0
 17 18  1  0  0  0
 18 19  2  0  0  0
 18 23  1  0  0  0
 19 20  1  0  0  0
 20 21  2  0  0  0
 21 22  1  0  0  0
 22 23  2  0  0  0
 24 25  2  0  0  0
 24 26  1  0  0  0
 26 27  1  0  0  0
 26 31  1  0  0  0
 27 28  2  0  0  0
 28 29  1  0  0  0
 28 30  1  0  0  0
 30 31  2  0  0  0
 31 32  1  0  0  0
M  END
>  <CHROM.0>
-61.81977348,66.44787321,71.56086600,62.26944316,-31.54520745,-64.03395040
-35.39215947,-158.39678744

>  <CHROM.1>
103.11636216,52.75587689,-21.79479017,141.93573465,13.30431287,-22.55883371
21.19963166,-12.49725449,-2.00560258,-0.59489823,-2.45228403

>  <Name>
F3382-4448

>  <RI>
1.73817e+07

>  <Rbt.Current_Directory>
/home/adria/Escritorio/rDock_CMTR_LC/2pxcA_model/inputs_sah

>  <Rbt.Executable>
rbdock ($Id: //depot/dev/client3/rdock/2013.1/src/exe/rbdock.cxx#4 $)

>  <Rbt.Library>
libRbt.so (2013.1, Build901 2013/11/27)

>  <Rbt.Parameter_File>
/home/adria/Escritorio/rDock_2013.1_src/data/scripts/dock.prm

>  <Rbt.Receptor>
sah_rdock.prm

>  <SCORE>
-234.936

>  <SCORE.INTER>
-3.65001

>  <SCORE.INTER.CONST>
1

>  <SCORE.INTER.POLAR>
0

>  <SCORE.INTER.REPUL>
0.423144

>  <SCORE.INTER.ROT>
5

>  <SCORE.INTER.VDW>
-16.1657

>  <SCORE.INTER.norm>
-0.114063

>  <SCORE.INTRA>
-224.081

>  <SCORE.INTRA.DIHEDRAL>
2.70662

>  <SCORE.INTRA.DIHEDRAL.0>
5.05771

>  <SCORE.INTRA.POLAR>
0

>  <SCORE.INTRA.POLAR.0>
0

>  <SCORE.INTRA.REPUL>
0

>  <SCORE.INTRA.REPUL.0>
0

>  <SCORE.INTRA.VDW>
-225.434

>  <SCORE.INTRA.VDW.0>
220.808

>  <SCORE.INTRA.norm>
-7.00254

>  <SCORE.RESTR>
0.0970202

>  <SCORE.RESTR.CAVITY>
0.0970202

>  <SCORE.RESTR.norm>
0.00303188

>  <SCORE.SYSTEM>
-7.30185

>  <SCORE.SYSTEM.CONST>
0

>  <SCORE.SYSTEM.DIHEDRAL>
5.86304

>  <SCORE.SYSTEM.POLAR>
-3.74171

>  <SCORE.SYSTEM.VDW>
2.48845

>  <SCORE.SYSTEM.norm>
-0.228183

>  <SCORE.heavy>
32

>  <SCORE.norm>
-7.34175

$$$$
F3382-4448
  rDOCK(R)          3D
libRbt.so/2013.1/901 2013/11/27
 32 35  0  0  0  0  0  0  0  0999 V2000
  -19.7420   16.7151  -16.5560 C   0  0  0  0  0  0
  -20.5578   17.1494  -15.4184 N   0  0  0  0  0  0
  -21.7354   17.6768  -15.8919 C   0  0  0  0  0  0
  -23.3189   16.8773  -15.5494 C   0  0  0  0  0  0
  -24.8598   17.4040  -16.2935 C   0  0  0  0  0  0
  -25.0018   18.7380  -17.3414 C   0  0  0  0  0  0
  -26.0913   19.0217  -18.0675 F   0  0  0  0  0  0
  -23.5674   19.5317  -17.8309 C   0  0  0  0  0  0
  -21.6757   19.0151  -17.1296 C   0  0  0  0  0  0
  -20.0394   18.0553  -14.0968 S   0  0  0  0  0  0
  -21.1455   18.3045  -13.1931 O   0  0  0  0  0  0
  -18.9142   17.3415  -13.5610 O   0  0  0  0  0  0
  -19.6081   19.7394  -14.5453 C   0  0  0  0  0  0
  -20.3928   20.8714  -14.0929 C   0  0  0  0  0  0
  -19.6695   22.3301  -14.6869 S   0  0  0  0  0  0
  -18.3129   21.5400  -15.3005 C   0  0  0  0  0  0
  -18.3311   20.1533  -15.2495 C   0  0  0  0  0  0
  -17.1094   19.4395  -15.8127 C   0  0  0  0  0  0
  -16.9614   18.0332  -15.7716 C   0  0  0  0  0  0
  -15.8169   17.3672  -16.2695 C   0  0  0  0  0  0
  -14.7842   18.0722  -16.8665 C   0  0  0  0  0  0
  -14.8986   19.4378  -16.9464 C   0  0  0  0  0  0
  -16.0137   20.0789  -16.3898 C   0  0  0  0  0  0
  -21.6193   21.1850  -13.2065 C   0  0  0  0  0  0
  -22.5486   20.3888  -13.0624 O   0  0  0  0  0  0
  -21.7065   22.2796  -12.3184 N   0  0  0  0  0  0
  -20.2100   22.4787  -11.2971 N   0  0  0  0  0  0
  -20.2098   24.1093  -10.3615 C   0  0  0  0  0  0
  -19.1471   25.2945  -10.5135 C   0  0  0  0  0  0
  -22.0663   24.7633  -10.7658 C   0  0  0  0  0  0
  -22.9276   23.4596  -11.7199 C   0  0  0  0  0  0
  -23.9813   22.3835  -11.0803 C   0  0  0  0  0  0
  1  2  1  0  0  0
  2  3  1  0  0  0
  2 10  1  0  0  0
  3  4  2  0  0  0
  3  9  1  0  0  0
  4  5  1  0  0  0
  5  6  2  0  0  0
  6  7  1  0  0  0
  6  8  1  0  0  0
  8  9  2  0  0  0
 10 11  2  0  0  0
 10 12  2  0  0  0
 10 13  1  0  0  0
 13 14  2  0  0  0
 13 17  1  0  0  0
 14 15  1  0  0  0
 14 24  1  0  0  0
 15 16  1  0  0  0
 16 17  2  0  0  0
 17 18  1  0  0  0
 18 19  2  0  0  0
 18 23  1  0  0  0
 19 20  1  0  0  0
 20 21  2  0  0  0
 21 22  1  0  0  0
 22 23  2  0  0  0
 24 25  2  0  0  0
 24 26  1  0  0  0
 26 27  1  0  0  0
 26 31  1  0  0  0
 27 28  2  0  0  0
 28 29  1  0  0  0
 28 30  1  0  0  0
 30 31  2  0  0  0
 31 32  1  0  0  0
M  END
>  <CHROM.0>
-58.96906859,-70.23669208,-47.23969305,65.35288169,-31.50323586,61.10083783
82.27237066,-162.95166668

>  <CHROM.1>
114.57482710,178.94897679,112.23381824,-29.97429436,0.94577600,-20.44442154
19.96814955,-14.57414216,1.12589079,-0.00217179,-2.41502767

>  <Name>
F3382-4448

>  <RI>
1.73817e+07

>  <Rbt.Current_Directory>
/home/adria/Escritorio/rDock_CMTR_LC/2pxcA_model/inputs_sah

>  <Rbt.Executable>
rbdock ($Id: //depot/dev/client3/rdock/2013.1/src/exe/rbdock.cxx#4 $)

>  <Rbt.Library>
libRbt.so (2013.1, Build901 2013/11/27)

>  <Rbt.Parameter_File>
/home/adria/Escritorio/rDock_2013.1_src/data/scripts/dock.prm

>  <Rbt.Receptor>
sah_rdock.prm

>  <SCORE>
-249.437

>  <SCORE.INTER>
-17.716

>  <SCORE.INTER.CONST>
1

>  <SCORE.INTER.POLAR>
-0.824621

>  <SCORE.INTER.REPUL>
0

>  <SCORE.INTER.ROT>
5

>  <SCORE.INTER.VDW>
-25.3123

>  <SCORE.INTER.norm>
-0.553625

>  <SCORE.INTRA>
-224.234

>  <SCORE.INTRA.DIHEDRAL>
0.353672

>  <SCORE.INTRA.DIHEDRAL.0>
5.05771

>  <SCORE.INTRA.POLAR>
0

>  <SCORE.INTRA.POLAR.0>
0

>  <SCORE.INTRA.REPUL>
0

>  <SCORE.INTRA.REPUL.0>
0

>  <SCORE.INTRA.VDW>
-224.411

>  <SCORE.INTRA.VDW.0>
220.808

>  <SCORE.INTRA.norm>
-7.00732

>  <SCORE.RESTR>
0

>  <SCORE.RESTR.CAVITY>
0

>  <SCORE.RESTR.norm>
0

>  <SCORE.SYSTEM>
-7.48718

>  <SCORE.SYSTEM.CONST>
0

>  <SCORE.SYSTEM.DIHEDRAL>
5.86163

>  <SCORE.SYSTEM.POLAR>
-3.91808

>  <SCORE.SYSTEM.REPUL>
0.0332321

>  <SCORE.SYSTEM.VDW>
2.73732

>  <SCORE.SYSTEM.norm>
-0.233974

>  <SCORE.heavy>
32

>  <SCORE.norm>
-7.79492

$$$$
F3382-4448
  rDOCK(R)          3D
libRbt.so/2013.1/901 2013/11/27
 32 35  0  0  0  0  0  0  0  0999 V2000
  -23.6760   15.8647  -12.9958 C   0  0  0  0  0  0
  -23.0986   17.2108  -13.0464 N   0  0  0  0  0  0
  -23.4557   17.8030  -14.2342 C   0  0  0  0  0  0
  -22.3600   17.7476  -15.6696 C   0  0  0  0  0  0
  -22.6797   18.6579  -17.1778 C   0  0  0  0  0  0
  -24.0665   19.6106  -17.4368 C   0  0  0  0  0  0
  -24.2259   20.4583  -18.4618 F   0  0  0  0  0  0
  -25.1451   19.8323  -16.1274 C   0  0  0  0  0  0
  -24.9013   18.9144  -14.2740 C   0  0  0  0  0  0
  -21.5143   17.6403  -12.6703 S   0  0  0  0  0  0
  -21.3399   17.7095  -11.2326 O   0  0  0  0  0  0
  -20.6856   16.7051  -13.3784 O   0  0  0  0  0  0
  -21.1376   19.3374  -13.1195 C   0  0  0  0  0  0
  -21.8257   20.4566  -12.5066 C   0  0  0  0  0  0
  -21.1869   21.9319  -13.1542 S   0  0  0  0  0  0
  -19.9555   21.1564  -14.0046 C   0  0  0  0  0  0
  -19.9835   19.7689  -14.0024 C   0  0  0  0  0  0
  -18.8762   19.0686  -14.7789 C   0  0  0  0  0  0
  -18.9139   17.6876  -15.0829 C   0  0  0  0  0  0
  -17.8758   17.0269  -15.7809 C   0  0  0  0  0  0
  -16.7697   17.7230  -16.2412 C   0  0  0  0  0  0
  -16.7048   19.0703  -15.9862 C   0  0  0  0  0  0
  -17.7160   19.6890  -15.2388 C   0  0  0  0  0  0
  -22.8915   20.7447  -11.4252 C   0  0  0  0  0  0
  -23.4263   19.8470  -10.7720 O   0  0  0  0  0  0
  -23.1977   22.0293  -10.9248 N   0  0  0  0  0  0
  -21.7094   23.0000  -10.5189 N   0  0  0  0  0  0
  -22.1199   24.7998  -10.1632 C   0  0  0  0  0  0
  -21.6048   26.0737  -10.9811 C   0  0  0  0  0  0
  -24.1278   24.7229  -10.1580 C   0  0  0  0  0  0
  -24.6252   22.9733  -10.3655 C   0  0  0  0  0  0
  -25.0791   21.9855   -9.1425 C   0  0  0  0  0  0
  1  2  1  0  0  0
  2  3  1  0  0  0
  2 10  1  0  0  0
  3  4  2  0  0  0
  3  9  1  0  0  0
  4  5  1  0  0  0
  5  6  2  0  0  0
  6  7  1  0  0  0
  6  8  1  0  0  0
  8  9  2  0  0  0
 10 11  2  0  0  0
 10 12  2  0  0  0
 10 13  1  0  0  0
 13 14  2  0  0  0
 13 17  1  0  0  0
 14 15  1  0  0  0
 14 24  1  0  0  0
 15 16  1  0  0  0
 16 17  2  0  0  0
 17 18  1  0  0  0
 18 19  2  0  0  0
 18 23  1  0  0  0
 19 20  1  0  0  0
 20 21  2  0  0  0
 21 22  1  0  0  0
 22 23  2  0  0  0
 24 25  2  0  0  0
 24 26  1  0  0  0
 26 27  1  0  0  0
 26 31  1  0  0  0
 27 28  2  0  0  0
 28 29  1  0  0  0
 28 30  1  0  0  0
 30 31  2  0  0  0
 31 32  1  0  0  0
M  END
>  <CHROM.0>
-155.17919509,-166.98494689,-47.45056434,61.03539467,34.52318366,-175.73220494
74.53226231,-165.73706208

>  <CHROM.1>
-95.06312325,-78.48638387,63.11414489,0.59551008,16.40945529,-21.79549477
19.88750942,-13.41986593,1.14430895,-0.11276504,-2.44076331

>  <Name>
F3382-4448

>  <RI>
1.73817e+07

>  <Rbt.Current_Directory>
/home/adria/Escritorio/rDock_CMTR_LC/2pxcA_model/inputs_sah

>  <Rbt.Executable>
rbdock ($Id: //depot/dev/client3/rdock/2013.1/src/exe/rbdock.cxx#4 $)

>  <Rbt.Library>
libRbt.so (2013.1, Build901 2013/11/27)

>  <Rbt.Parameter_File>
/home/adria/Escritorio/rDock_2013.1_src/data/scripts/dock.prm

>  <Rbt.Receptor>
sah_rdock.prm

>  <SCORE>
-231.23

>  <SCORE.INTER>
-12.7389

>  <SCORE.INTER.CONST>
1

>  <SCORE.INTER.POLAR>
-0.937522

>  <SCORE.INTER.REPUL>
0.119341

>  <SCORE.INTER.ROT>
5

>  <SCORE.INTER.VDW>
-20.548

>  <SCORE.INTER.norm>
-0.398089

>  <SCORE.INTRA>
-226.108

>  <SCORE.INTRA.DIHEDRAL>
-1.8126

>  <SCORE.INTRA.DIHEDRAL.0>
5.05771

>  <SCORE.INTRA.POLAR>
0

>  <SCORE.INTRA.POLAR.0>
0

>  <SCORE.INTRA.REPUL>
0

>  <SCORE.INTRA.REPUL.0>
0

>  <SCORE.INTRA.VDW>
-225.201

>  <SCORE.INTRA.VDW.0>
220.808

>  <SCORE.INTRA.norm>
-7.06587

>  <SCORE.RESTR>
0.038536

>  <SCORE.RESTR.CAVITY>
0.038536

>  <SCORE.RESTR.norm>
0.00120425

>  <SCORE.SYSTEM>
7.5778

>  <SCORE.SYSTEM.CONST>
0

>  <SCORE.SYSTEM.DIHEDRAL>
7.40806

>  <SCORE.SYSTEM.POLAR>
-3.09377

>  <SCORE.SYSTEM.VDW>
14.3926

>  <SCORE.SYSTEM.norm>
0.236806

>  <SCORE.heavy>
32

>  <SCORE.norm>
-7.22595

$$$$
F3382-4448
  rDOCK(R)          3D
libRbt.so/2013.1/901 2013/11/27
 32 35  0  0  0  0  0  0  0  0999 V2000
  -23.5794   16.0757  -13.2392 C   0  0  0  0  0  0
  -22.5793   17.1469  -13.2223 N   0  0  0  0  0  0
  -22.8028   17.9461  -12.1265 C   0  0  0  0  0  0
  -24.4588   18.5571  -11.7411 C   0  0  0  0  0  0
  -24.7823   19.7509  -10.4465 C   0  0  0  0  0  0
  -23.5845   20.3805   -9.4137 C   0  0  0  0  0  0
  -23.7634   21.4185   -8.5860 F   0  0  0  0  0  0
  -21.9546   19.9636   -9.7251 C   0  0  0  0  0  0
  -21.3765   18.6479  -11.2325 C   0  0  0  0  0  0
  -22.1161   18.1111  -14.5230 S   0  0  0  0  0  0
  -21.6748   17.2845  -15.6294 O   0  0  0  0  0  0
  -23.2311   18.9819  -14.7703 O   0  0  0  0  0  0
  -20.6111   19.0329  -14.1930 C   0  0  0  0  0  0
  -19.3097   18.5298  -14.5867 C   0  0  0  0  0  0
  -18.1005   19.6884  -14.1400 S   0  0  0  0  0  0
  -19.2276   20.8499  -13.6693 C   0  0  0  0  0  0
  -20.5576   20.4534  -13.6668 C   0  0  0  0  0  0
  -21.5748   21.5002  -13.2322 C   0  0  0  0  0  0
  -21.2405   22.8644  -13.0636 C   0  0  0  0  0  0
  -22.1751   23.8361  -12.6348 C   0  0  0  0  0  0
  -23.4965   23.4970  -12.3916 C   0  0  0  0  0  0
  -23.8674   22.1868  -12.5650 C   0  0  0  0  0  0
  -22.9086   21.2320  -12.9300 C   0  0  0  0  0  0
  -18.6770   17.3295  -15.3265 C   0  0  0  0  0  0
  -19.3223   16.3209  -15.6176 O   0  0  0  0  0  0
  -17.3996   17.3429  -15.9286 N   0  0  0  0  0  0
  -17.1096   18.8369  -16.9316 N   0  0  0  0  0  0
  -15.3113   18.9920  -17.4574 C   0  0  0  0  0  0
  -14.3051   20.1737  -17.0725 C   0  0  0  0  0  0
  -14.5953   17.2192  -16.8393 C   0  0  0  0  0  0
  -15.9985   16.2417  -16.1856 C   0  0  0  0  0  0
  -16.7844   15.0732  -17.0188 C   0  0  0  0  0  0
  1  2  1  0  0  0
  2  3  1  0  0  0
  2 10  1  0  0  0
  3  4  2  0  0  0
  3  9  1  0  0  0
  4  5  1  0  0  0
  5  6  2  0  0  0
  6  7  1  0  0  0
  6  8  1  0  0  0
  8  9  2  0  0  0
 10 11  2  0  0  0
 10 12  2  0  0  0
 10 13  1  0  0  0
 13 14  2  0  0  0
 13 17  1  0  0  0
 14 15  1  0  0  0
 14 24  1  0  0  0
 15 16  1  0  0  0
 16 17  2  0  0  0
 17 18  1  0  0  0
 18 19  2  0  0  0
 18 23  1  0  0  0
 19 20  1  0  0  0
 20 21  2  0  0  0
 21 22  1  0  0  0
 22 23  2  0  0  0
 24 25  2  0  0  0
 24 26  1  0  0  0
 26 27  1  0  0  0
 26 31  1  0  0  0
 27 28  2  0  0  0
 28 29  1  0  0  0
 28 30  1  0  0  0
 30 31  2  0  0  0
 31 32  1  0  0  0
M  END
>  <CHROM.0>
-175.86251275,66.23173466,-45.99871167,63.49982716,36.22392755,-59.16463673
-156.50017329,-164.79090510

>  <CHROM.1>
-47.99983511,-55.61592552,94.18161369,-11.28821323,-165.23463315,-20.57018808
19.17081944,-13.79566909,2.62809898,0.51915989,0.32960936

>  <Name>
F3382-4448

>  <RI>
1.73817e+07

>  <Rbt.Current_Directory>
/home/adria/Escritorio/rDock_CMTR_LC/2pxcA_model/inputs_sah

>  <Rbt.Executable>
rbdock ($Id: //depot/dev/client3/rdock/2013.1/src/exe/rbdock.cxx#4 $)

>  <Rbt.Library>
libRbt.so (2013.1, Build901 2013/11/27)

>  <Rbt.Parameter_File>
/home/adria/Escritorio/rDock_2013.1_src/data/scripts/dock.prm

>  <Rbt.Receptor>
sah_rdock.prm

>  <SCORE>
-233.783

>  <SCORE.INTER>
-12.3388

>  <SCORE.INTER.CONST>
1

>  <SCORE.INTER.POLAR>
0

>  <SCORE.INTER.REPUL>
0.215125

>  <SCORE.INTER.ROT>
5

>  <SCORE.INTER.VDW>
-23.8144

>  <SCORE.INTER.norm>
-0.385586

>  <SCORE.INTRA>
-226.467

>  <SCORE.INTRA.DIHEDRAL>
-1.31812

>  <SCORE.INTRA.DIHEDRAL.0>
5.05771

>  <SCORE.INTRA.POLAR>
0

>  <SCORE.INTRA.POLAR.0>
0

>  <SCORE.INTRA.REPUL>
0

>  <SCORE.INTRA.REPUL.0>
0

>  <SCORE.INTRA.VDW>
-225.808

>  <SCORE.INTRA.VDW.0>
220.808

>  <SCORE.INTRA.norm>
-7.0771

>  <SCORE.RESTR>
0

>  <SCORE.RESTR.CAVITY>
0

>  <SCORE.RESTR.norm>
0

>  <SCORE.SYSTEM>
5.02328

>  <SCORE.SYSTEM.CONST>
0

>  <SCORE.SYSTEM.DIHEDRAL>
4.77552

>  <SCORE.SYSTEM.POLAR>
-3.4071

>  <SCORE.SYSTEM.VDW>
14.2197

>  <SCORE.SYSTEM.norm>
0.156978

>  <SCORE.heavy>
32

>  <SCORE.norm>
-7.30571

$$$$
F3382-4448
  rDOCK(R)          3D
libRbt.so/2013.1/901 2013/11/27
 32 35  0  0  0  0  0  0  0  0999 V2000
  -23.2935   16.4546  -13.2750 C   0  0  0  0  0  0
  -22.7012   17.7943  -13.2268 N   0  0  0  0  0  0
  -23.0361   18.3853  -12.0319 C   0  0  0  0  0  0
  -24.7641   18.6394  -11.5699 C   0  0  0  0  0  0
  -25.2614   19.5707  -10.1239 C   0  0  0  0  0  0
  -24.1688   20.2532   -9.0111 C   0  0  0  0  0  0
  -24.5069   21.1215   -8.0487 F   0  0  0  0  0  0
  -22.4985   20.1738   -9.3731 C   0  0  0  0  0  0
  -21.7339   19.1971  -11.0461 C   0  0  0  0  0  0
  -22.7393   18.9552  -14.4462 S   0  0  0  0  0  0
  -22.3809   18.3597  -15.7186 O   0  0  0  0  0  0
  -24.0387   19.5605  -14.3582 O   0  0  0  0  0  0
  -21.4263   20.1686  -14.2806 C   0  0  0  0  0  0
  -21.6349   21.4245  -13.5871 C   0  0  0  0  0  0
  -20.1535   22.3241  -13.5957 S   0  0  0  0  0  0
  -19.2600   21.0610  -14.2644 C   0  0  0  0  0  0
  -19.9767   19.9405  -14.6604 C   0  0  0  0  0  0
  -19.1702   18.8033  -15.2733 C   0  0  0  0  0  0
  -17.7991   18.9294  -15.5980 C   0  0  0  0  0  0
  -17.0519   17.8851  -16.1916 C   0  0  0  0  0  0
  -17.6301   16.6532  -16.4531 C   0  0  0  0  0  0
  -18.9538   16.4821  -16.1324 C   0  0  0  0  0  0
  -19.6880   17.5520  -15.6028 C   0  0  0  0  0  0
  -22.7316   22.1751  -12.7983 C   0  0  0  0  0  0
  -23.8637   21.7141  -12.6433 O   0  0  0  0  0  0
  -22.5051   23.3223  -12.0063 N   0  0  0  0  0  0
  -21.0496   23.1534  -10.9222 N   0  0  0  0  0  0
  -20.5773   24.7870  -10.1207 C   0  0  0  0  0  0
  -19.1989   25.5759  -10.3070 C   0  0  0  0  0  0
  -22.1320   25.9313  -10.6787 C   0  0  0  0  0  0
  -23.3231   24.8664  -11.5726 C   0  0  0  0  0  0
  -24.6737   24.2235  -10.9091 C   0  0  0  0  0  0
  1  2  1  0  0  0
  2  3  1  0  0  0
  2 10  1  0  0  0
  3  4  2  0  0  0
  3  9  1  0  0  0
  4  5  1  0  0  0
  5  6  2  0  0  0
  6  7  1  0  0  0
  6  8  1  0  0  0
  8  9  2  0  0  0
 10 11  2  0  0  0
 10 12  2  0  0  0
 10 13  1  0  0  0
 13 14  2  0  0  0
 13 17  1  0  0  0
 14 15  1  0  0  0
 14 24  1  0  0  0
 15 16  1  0  0  0
 16 17  2  0  0  0
 17 18  1  0  0  0
 18 19  2  0  0  0
 18 23  1  0  0  0
 19 20  1  0  0  0
 20 21  2  0  0  0
 21 22  1  0  0  0
 22 23  2  0  0  0
 24 25  2  0  0  0
 24 26  1  0  0  0
 26 27  1  0  0  0
 26 31  1  0  0  0
 27 28  2  0  0  0
 28 29  1  0  0  0
 28 30  1  0  0  0
 30 31  2  0  0  0
 31 32  1  0  0  0
M  END
>  <CHROM.0>
-61.48737921,-167.89802841,-165.89097947,-61.44359335,168.15383600,62.26324192
-38.24407279,-160.14974502

>  <CHROM.1>
-59.10957687,-47.16448370,-93.89710029,-2.62042890,175.54276827,-21.74455114
20.50452045,-12.85473390,1.06244288,-0.57884450,-2.66513497

>  <Name>
F3382-4448

>  <RI>
1.73817e+07

>  <Rbt.Current_Directory>
/home/adria/Escritorio/rDock_CMTR_LC/2pxcA_model/inputs_sah

>  <Rbt.Executable>
rbdock ($Id: //depot/dev/client3/rdock/2013.1/src/exe/rbdock.cxx#4 $)

>  <Rbt.Library>
libRbt.so (2013.1, Build901 2013/11/27)

>  <Rbt.Parameter_File>
/home/adria/Escritorio/rDock_2013.1_src/data/scripts/dock.prm

>  <Rbt.Receptor>
sah_rdock.prm

>  <SCORE>
-240.222

>  <SCORE.INTER>
-11.5873

>  <SCORE.INTER.CONST>
1

>  <SCORE.INTER.POLAR>
0

>  <SCORE.INTER.REPUL>
0.111443

>  <SCORE.INTER.ROT>
5

>  <SCORE.INTER.VDW>
-22.5445

>  <SCORE.INTER.norm>
-0.362104

>  <SCORE.INTRA>
-227.51

>  <SCORE.INTRA.DIHEDRAL>
-2.85268

>  <SCORE.INTRA.DIHEDRAL.0>
5.05771

>  <SCORE.INTRA.POLAR>
0

>  <SCORE.INTRA.POLAR.0>
0

>  <SCORE.INTRA.REPUL>
0

>  <SCORE.INTRA.REPUL.0>
0

>  <SCORE.INTRA.VDW>
-226.084

>  <SCORE.INTRA.VDW.0>
220.808

>  <SCORE.INTRA.norm>
-7.10969

>  <SCORE.RESTR>
0

>  <SCORE.RESTR.CAVITY>
0

>  <SCORE.RESTR.norm>
0

>  <SCORE.SYSTEM>
-1.12472

>  <SCORE.SYSTEM.CONST>
0

>  <SCORE.SYSTEM.DIHEDRAL>
3.47329

>  <SCORE.SYSTEM.POLAR>
-3.54528

>  <SCORE.SYSTEM.VDW>
9.1926

>  <SCORE.SYSTEM.norm>
-0.0351475

>  <SCORE.heavy>
32

>  <SCORE.norm>
-7.50694

$$$$
F3382-4448
  rDOCK(R)          3D
libRbt.so/2013.1/901 2013/11/27
 32 35  0  0  0  0  0  0  0  0999 V2000
  -21.7508   17.5713  -16.8916 C   0  0  0  0  0  0
  -22.2553   18.0107  -15.5876 N   0  0  0  0  0  0
  -23.2069   18.9828  -15.7840 C   0  0  0  0  0  0
  -24.4249   19.3664  -14.5059 C   0  0  0  0  0  0
  -25.8011   20.4804  -14.7715 C   0  0  0  0  0  0
  -26.0670   21.3336  -16.2204 C   0  0  0  0  0  0
  -27.1902   22.0022  -16.5137 F   0  0  0  0  0  0
  -25.0467   20.9949  -17.5513 C   0  0  0  0  0  0
  -23.4388   19.6747  -17.4555 C   0  0  0  0  0  0
  -21.3345   18.4054  -14.2340 S   0  0  0  0  0  0
  -22.1979   18.7006  -13.1072 O   0  0  0  0  0  0
  -20.4073   17.3206  -14.0720 O   0  0  0  0  0  0
  -20.4922   19.9810  -14.4119 C   0  0  0  0  0  0
  -20.9602   21.1740  -13.7341 C   0  0  0  0  0  0
  -19.8938   22.4881  -14.1087 S   0  0  0  0  0  0
  -18.7872   21.5067  -14.9168 C   0  0  0  0  0  0
  -19.1571   20.1818  -15.1010 C   0  0  0  0  0  0
  -18.1610   19.2977  -15.8396 C   0  0  0  0  0  0
  -16.9330   19.7879  -16.3426 C   0  0  0  0  0  0
  -16.0162   18.9772  -17.0523 C   0  0  0  0  0  0
  -16.2661   17.6300  -17.2589 C   0  0  0  0  0  0
  -17.4372   17.1094  -16.7671 C   0  0  0  0  0  0
  -18.3572   17.9471  -16.1222 C   0  0  0  0  0  0
  -22.0603   21.6211  -12.7450 C   0  0  0  0  0  0
  -23.0469   20.9251  -12.4989 O   0  0  0  0  0  0
  -21.9535   22.7291  -11.8759 N   0  0  0  0  0  0
  -20.3553   22.7869  -11.0017 N   0  0  0  0  0  0
  -20.1038   24.4198  -10.1046 C   0  0  0  0  0  0
  -18.9468   25.4889  -10.3791 C   0  0  0  0  0  0
  -21.9152   25.2544  -10.3495 C   0  0  0  0  0  0
  -22.9886   24.0340  -11.1922 C   0  0  0  0  0  0
  -24.0800   23.0781  -10.4355 C   0  0  0  0  0  0
  1  2  1  0  0  0
  2  3  1  0  0  0
  2 10  1  0  0  0
  3  4  2  0  0  0
  3  9  1  0  0  0
  4  5  1  0  0  0
  5  6  2  0  0  0
  6  7  1  0  0  0
  6  8  1  0  0  0
  8  9  2  0  0  0
 10 11  2  0  0  0
 10 12  2  0  0  0
 10 13  1  0  0  0
 13 14  2  0  0  0
 13 17  1  0  0  0
 14 15  1  0  0  0
 14 24  1  0  0  0
 15 16  1  0  0  0
 16 17  2  0  0  0
 17 18  1  0  0  0
 18 19  2  0  0  0
 18 23  1  0  0  0
 19 20  1  0  0  0
 20 21  2  0  0  0
 21 22  1  0  0  0
 22 23  2  0  0  0
 24 25  2  0  0  0
 24 26  1  0  0  0
 26 27  1  0  0  0
 26 31  1  0  0  0
 27 28  2  0  0  0
 28 29  1  0  0  0
 28 30  1  0  0  0
 30 31  2  0  0  0
 31 32  1  0  0  0
M  END
>  <CHROM.0>
39.61062331,63.36418555,-166.35906251,65.03397865,-32.28067648,-57.30741740
-156.72344980,-160.54588234

>  <CHROM.1>
159.30988272,-175.88395659,104.10037851,-15.37118895,-177.33526168,-21.31673409
20.58650777,-14.31026362,0.98866491,0.10708941,-2.36193802

>  <Name>
F3382-4448

>  <RI>
1.73817e+07

>  <Rbt.Current_Directory>
/home/adria/Escritorio/rDock_CMTR_LC/2pxcA_model/inputs_sah

>  <Rbt.Executable>
rbdock ($Id: //depot/dev/client3/rdock/2013.1/src/exe/rbdock.cxx#4 $)

>  <Rbt.Library>
libRbt.so (2013.1, Build901 2013/11/27)

>  <Rbt.Parameter_File>
/home/adria/Escritorio/rDock_2013.1_src/data/scripts/dock.prm

>  <Rbt.Receptor>
sah_rdock.prm

>  <SCORE>
-235.978

>  <SCORE.INTER>
-11.887

>  <SCORE.INTER.CONST>
1

>  <SCORE.INTER.POLAR>
0

>  <SCORE.INTER.REPUL>
0

>  <SCORE.INTER.ROT>
5

>  <SCORE.INTER.VDW>
-22.287

>  <SCORE.INTER.norm>
-0.371468

>  <SCORE.INTRA>
-221.332

>  <SCORE.INTRA.DIHEDRAL>
-1.7509

>  <SCORE.INTRA.DIHEDRAL.0>
5.05771

>  <SCORE.INTRA.POLAR>
0

>  <SCORE.INTRA.POLAR.0>
0

>  <SCORE.INTRA.REPUL>
0

>  <SCORE.INTRA.REPUL.0>
0

>  <SCORE.INTRA.VDW>
-220.457

>  <SCORE.INTRA.VDW.0>
220.808

>  <SCORE.INTRA.norm>
-6.91662

>  <SCORE.RESTR>
0.102509

>  <SCORE.RESTR.CAVITY>
0.102509

>  <SCORE.RESTR.norm>
0.00320342

>  <SCORE.SYSTEM>
-2.86204

>  <SCORE.SYSTEM.CONST>
0

>  <SCORE.SYSTEM.DIHEDRAL>
7.38494

>  <SCORE.SYSTEM.POLAR>
-3.63312

>  <SCORE.SYSTEM.REPUL>
0.124464

>  <SCORE.SYSTEM.VDW>
5.17579

>  <SCORE.SYSTEM.norm>
-0.0894388

>  <SCORE.heavy>
32

>  <SCORE.norm>
-7.37433

$$$$
