F1441-0518
  rDOCK(R)          3D
libRbt.so/2013.1/901 2013/11/27
 34 38  0  0  0  0  0  0  0  0999 V2000
  -18.3389   14.9549  -16.2063 C   0  0  0  0  0  0
  -19.0845   15.9889  -15.5562 O   0  0  0  0  0  0
  -18.6680   17.2770  -15.7683 C   0  0  0  0  0  0
  -18.5007   18.1224  -14.6681 C   0  0  0  0  0  0
  -19.0129   17.7057  -13.4275 O   0  0  0  0  0  0
  -20.1453   18.2896  -12.8312 C   0  0  0  0  0  0
  -21.6792   17.5444  -12.9162 C   0  0  0  0  0  0
  -23.2915   18.7605  -13.1800 C   0  0  0  0  0  0
  -23.0519   20.4346  -13.1217 C   0  0  0  0  0  0
  -21.5215   20.9807  -12.8578 C   0  0  0  0  0  0
  -20.1376   19.9722  -12.7667 C   0  0  0  0  0  0
  -24.5323   21.3459  -13.0256 S   0  0  0  0  0  0
  -24.1950   22.7480  -13.0224 O   0  0  0  0  0  0
  -25.3899   20.7590  -14.0364 O   0  0  0  0  0  0
  -25.1034   20.9000  -11.4995 N   0  0  0  0  0  0
  -26.2786   19.9925  -11.3891 C   0  0  0  0  0  0
  -26.9127   19.9775   -9.9493 C   0  0  0  0  0  0
  -25.9902   20.2855   -8.8393 N   0  0  0  0  0  0
  -26.1288   21.6308   -8.2166 C   0  0  0  0  0  0
  -25.1759   22.7747   -8.5850 C   0  0  0  0  0  0
  -25.5346   23.5902   -9.6612 C   0  0  0  0  0  0
  -24.6252   24.5577   -9.9126 C   0  0  0  0  0  0
  -23.0773   24.6513   -9.2249 C   0  0  0  0  0  0
  -21.7815   25.0787  -10.4449 O   0  0  0  0  0  0
  -22.5660   25.3110  -12.2269 C   0  0  0  0  0  0
  -24.5391   24.9546  -11.6900 O   0  0  0  0  0  0
  -22.8208   23.8914   -8.1267 C   0  0  0  0  0  0
  -23.9282   23.0190   -7.7914 C   0  0  0  0  0  0
  -24.6262   19.9282   -9.2542 C   0  0  0  0  0  0
  -24.0888   20.7659  -10.4238 C   0  0  0  0  0  0
  -17.8326   19.3256  -14.9654 C   0  0  0  0  0  0
  -17.5069   19.7977  -16.2279 C   0  0  0  0  0  0
  -17.8481   19.0307  -17.2971 C   0  0  0  0  0  0
  -18.4058   17.7776  -17.0627 C   0  0  0  0  0  0
  1  2  1  0  0  0
  2  3  1  0  0  0
  3  4  2  0  0  0
  3 34  1  0  0  0
  4  5  1  0  0  0
  4 31  1  0  0  0
  5  6  1  0  0  0
  6  7  2  0  0  0
  6 11  1  0  0  0
  7  8  1  0  0  0
  8  9  2  0  0  0
  9 10  1  0  0  0
  9 12  1  0  0  0
 10 11  2  0  0  0
 12 13  2  0  0  0
 12 14  2  0  0  0
 12 15  1  0  0  0
 15 16  1  0  0  0
 15 30  1  0  0  0
 16 17  1  0  0  0
 17 18  1  0  0  0
 18 19  1  0  0  0
 18 29  1  0  0  0
 19 20  1  0  0  0
 20 21  2  0  0  0
 20 28  1  0  0  0
 21 22  1  0  0  0
 22 23  2  0  0  0
 22 26  1  0  0  0
 23 24  1  0  0  0
 23 27  1  0  0  0
 24 25  1  0  0  0
 25 26  1  0  0  0
 27 28  2  0  0  0
 29 30  1  0  0  0
 31 32  2  0  0  0
 32 33  1  0  0  0
 33 34  2  0  0  0
M  END
>  <CHROM.0>
-174.95974433,-74.63186462,-167.27474338,-62.36335624,-30.25714988,55.26910336
82.79548199,-161.37128564

>  <CHROM.1>
-131.17976480,-108.23770169,100.39928449,-178.32553173,-107.60975756,-100.05101082
89.36027085,-22.53830031,20.67917885,-12.28696136,0.73649987,-0.56552232
-2.83897833

>  <Name>
F1441-0518

>  <RI>
2.21986e+07

>  <Rbt.Current_Directory>
/home/adria/Escritorio/rDock_CMTR_LC/2pxcA_model/inputs_sah

>  <Rbt.Executable>
rbdock ($Id: //depot/dev/client3/rdock/2013.1/src/exe/rbdock.cxx#4 $)

>  <Rbt.Library>
libRbt.so (2013.1, Build901 2013/11/27)

>  <Rbt.Parameter_File>
/home/adria/Escritorio/rDock_2013.1_src/data/scripts/dock.prm

>  <Rbt.Receptor>
sah_rdock.prm

>  <SCORE>
-255.081

>  <SCORE.INTER>
-11.7421

>  <SCORE.INTER.CONST>
1

>  <SCORE.INTER.POLAR>
-0.824621

>  <SCORE.INTER.REPUL>
0

>  <SCORE.INTER.ROT>
7

>  <SCORE.INTER.VDW>
-21.3384

>  <SCORE.INTER.norm>
-0.345355

>  <SCORE.INTRA>
-236.565

>  <SCORE.INTRA.DIHEDRAL>
8.65875

>  <SCORE.INTRA.DIHEDRAL.0>
6.6817

>  <SCORE.INTRA.POLAR>
0

>  <SCORE.INTRA.POLAR.0>
0

>  <SCORE.INTRA.REPUL>
0

>  <SCORE.INTRA.REPUL.0>
0

>  <SCORE.INTRA.VDW>
-240.894

>  <SCORE.INTRA.VDW.0>
238.347

>  <SCORE.INTRA.norm>
-6.95778

>  <SCORE.RESTR>
0

>  <SCORE.RESTR.CAVITY>
0

>  <SCORE.RESTR.norm>
0

>  <SCORE.SYSTEM>
-6.77387

>  <SCORE.SYSTEM.CONST>
0

>  <SCORE.SYSTEM.DIHEDRAL>
6.77611

>  <SCORE.SYSTEM.POLAR>
-3.96227

>  <SCORE.SYSTEM.REPUL>
0.0413186

>  <SCORE.SYSTEM.VDW>
3.10321

>  <SCORE.SYSTEM.norm>
-0.199232

>  <SCORE.heavy>
34

>  <SCORE.norm>
-7.50237

$$$$
F1441-0518
  rDOCK(R)          3D
libRbt.so/2013.1/901 2013/11/27
 34 38  0  0  0  0  0  0  0  0999 V2000
  -23.7820   24.8572  -13.2211 C   0  0  0  0  0  0
  -23.6253   24.5713  -11.8277 O   0  0  0  0  0  0
  -22.3969   24.8305  -11.2786 C   0  0  0  0  0  0
  -21.6167   23.7599  -10.8334 C   0  0  0  0  0  0
  -22.2236   22.4971  -10.7247 O   0  0  0  0  0  0
  -22.2616   21.5717  -11.7837 C   0  0  0  0  0  0
  -22.7371   19.9513  -11.5322 C   0  0  0  0  0  0
  -21.7233   18.5138  -12.5588 C   0  0  0  0  0  0
  -20.6000   19.0027  -13.7260 C   0  0  0  0  0  0
  -20.3915   20.6190  -13.9589 C   0  0  0  0  0  0
  -21.1398   21.8366  -13.0112 C   0  0  0  0  0  0
  -20.0551   17.7064  -14.7527 S   0  0  0  0  0  0
  -19.3753   16.7383  -13.9280 O   0  0  0  0  0  0
  -21.2132   17.3626  -15.5541 O   0  0  0  0  0  0
  -18.9311   18.5020  -15.7312 N   0  0  0  0  0  0
  -19.4024   19.2909  -16.9028 C   0  0  0  0  0  0
  -18.2485   19.6446  -17.9121 C   0  0  0  0  0  0
  -16.8957   19.7432  -17.3305 N   0  0  0  0  0  0
  -15.9668   18.6160  -17.6189 C   0  0  0  0  0  0
  -16.4418   17.1598  -17.5400 C   0  0  0  0  0  0
  -16.3581   16.5215  -16.3000 C   0  0  0  0  0  0
  -16.7879   15.2410  -16.3387 C   0  0  0  0  0  0
  -17.1332   14.3646  -17.7496 C   0  0  0  0  0  0
  -16.4713   12.6587  -17.7072 O   0  0  0  0  0  0
  -15.5381   12.3260  -16.0151 C   0  0  0  0  0  0
  -15.8740   14.1887  -15.1632 O   0  0  0  0  0  0
  -17.2846   15.0580  -18.9095 C   0  0  0  0  0  0
  -17.0043   16.4703  -18.7460 C   0  0  0  0  0  0
  -17.0241   20.0973  -15.9098 C   0  0  0  0  0  0
  -17.7148   19.0225  -15.0574 C   0  0  0  0  0  0
  -20.2866   24.1071  -10.5286 C   0  0  0  0  0  0
  -19.7638   25.3896  -10.4617 C   0  0  0  0  0  0
  -20.6007   26.4280  -10.7250 C   0  0  0  0  0  0
  -21.8964   26.1446  -11.1456 C   0  0  0  0  0  0
  1  2  1  0  0  0
  2  3  1  0  0  0
  3  4  2  0  0  0
  3 34  1  0  0  0
  4  5  1  0  0  0
  4 31  1  0  0  0
  5  6  1  0  0  0
  6  7  2  0  0  0
  6 11  1  0  0  0
  7  8  1  0  0  0
  8  9  2  0  0  0
  9 10  1  0  0  0
  9 12  1  0  0  0
 10 11  2  0  0  0
 12 13  2  0  0  0
 12 14  2  0  0  0
 12 15  1  0  0  0
 15 16  1  0  0  0
 15 30  1  0  0  0
 16 17  1  0  0  0
 17 18  1  0  0  0
 18 19  1  0  0  0
 18 29  1  0  0  0
 19 20  1  0  0  0
 20 21  2  0  0  0
 20 28  1  0  0  0
 21 22  1  0  0  0
 22 23  2  0  0  0
 22 26  1  0  0  0
 23 24  1  0  0  0
 23 27  1  0  0  0
 24 25  1  0  0  0
 25 26  1  0  0  0
 27 28  2  0  0  0
 29 30  1  0  0  0
 31 32  2  0  0  0
 32 33  1  0  0  0
 33 34  2  0  0  0
M  END
>  <CHROM.0>
-63.20787927,-170.72665400,-47.27787601,60.69551336,169.22935928,-57.98093128
-157.20362994,-163.77657378

>  <CHROM.1>
-113.09726603,89.38475419,168.21862400,-62.72945830,-81.34861426,-43.50792364
-88.02238301,-19.40115533,19.42740968,-14.51672030,-2.23148035,-0.77606113
-3.07264269

>  <Name>
F1441-0518

>  <RI>
2.21986e+07

>  <Rbt.Current_Directory>
/home/adria/Escritorio/rDock_CMTR_LC/2pxcA_model/inputs_sah

>  <Rbt.Executable>
rbdock ($Id: //depot/dev/client3/rdock/2013.1/src/exe/rbdock.cxx#4 $)

>  <Rbt.Library>
libRbt.so (2013.1, Build901 2013/11/27)

>  <Rbt.Parameter_File>
/home/adria/Escritorio/rDock_2013.1_src/data/scripts/dock.prm

>  <Rbt.Receptor>
sah_rdock.prm

>  <SCORE>
-261.435

>  <SCORE.INTER>
-20.4699

>  <SCORE.INTER.CONST>
1

>  <SCORE.INTER.POLAR>
-1.66152

>  <SCORE.INTER.REPUL>
0.00542302

>  <SCORE.INTER.ROT>
7

>  <SCORE.INTER.VDW>
-27.2478

>  <SCORE.INTER.norm>
-0.602054

>  <SCORE.INTRA>
-239.382

>  <SCORE.INTRA.DIHEDRAL>
5.38327

>  <SCORE.INTRA.DIHEDRAL.0>
6.6817

>  <SCORE.INTRA.POLAR>
0

>  <SCORE.INTRA.POLAR.0>
0

>  <SCORE.INTRA.REPUL>
0

>  <SCORE.INTRA.REPUL.0>
0

>  <SCORE.INTRA.VDW>
-242.074

>  <SCORE.INTRA.VDW.0>
238.347

>  <SCORE.INTRA.norm>
-7.04066

>  <SCORE.RESTR>
0

>  <SCORE.RESTR.CAVITY>
0

>  <SCORE.RESTR.norm>
0

>  <SCORE.SYSTEM>
-1.58305

>  <SCORE.SYSTEM.CONST>
0

>  <SCORE.SYSTEM.DIHEDRAL>
2.93341

>  <SCORE.SYSTEM.POLAR>
-3.63699

>  <SCORE.SYSTEM.VDW>
9.31601

>  <SCORE.SYSTEM.norm>
-0.0465603

>  <SCORE.heavy>
34

>  <SCORE.norm>
-7.68927

$$$$
F1441-0518
  rDOCK(R)          3D
libRbt.so/2013.1/901 2013/11/27
 34 38  0  0  0  0  0  0  0  0999 V2000
  -19.0001   21.6972  -15.2025 C   0  0  0  0  0  0
  -18.1888   20.7013  -14.5719 O   0  0  0  0  0  0
  -17.7886   19.6471  -15.3506 C   0  0  0  0  0  0
  -18.4352   18.4167  -15.2053 C   0  0  0  0  0  0
  -19.2800   18.2381  -14.0966 O   0  0  0  0  0  0
  -20.6809   18.3382  -14.1770 C   0  0  0  0  0  0
  -21.4618   19.8551  -14.2438 C   0  0  0  0  0  0
  -23.2052   20.0508  -13.2093 C   0  0  0  0  0  0
  -23.8737   18.6701  -12.4951 C   0  0  0  0  0  0
  -23.0678   17.2464  -12.6780 C   0  0  0  0  0  0
  -21.5352   17.0932  -13.4317 C   0  0  0  0  0  0
  -25.5070   18.8976  -11.9366 S   0  0  0  0  0  0
  -26.1223   19.9130  -12.7552 O   0  0  0  0  0  0
  -26.0479   17.5568  -11.8306 O   0  0  0  0  0  0
  -25.2493   19.5065  -10.3820 N   0  0  0  0  0  0
  -26.4156   19.8638   -9.5281 C   0  0  0  0  0  0
  -26.0242   20.7530   -8.2907 C   0  0  0  0  0  0
  -24.6457   20.5854   -7.7911 N   0  0  0  0  0  0
  -23.6898   21.6833   -8.1033 C   0  0  0  0  0  0
  -24.0404   22.7699   -9.1274 C   0  0  0  0  0  0
  -25.1625   23.5609   -8.8682 C   0  0  0  0  0  0
  -25.3931   24.4774   -9.8341 C   0  0  0  0  0  0
  -24.6201   24.5273  -11.3433 C   0  0  0  0  0  0
  -25.7765   24.8525  -12.7243 O   0  0  0  0  0  0
  -27.6079   25.0545  -12.0534 C   0  0  0  0  0  0
  -27.1749   24.8054  -10.0387 O   0  0  0  0  0  0
  -23.4840   23.7972  -11.5019 C   0  0  0  0  0  0
  -23.1844   22.9874  -10.3382 C   0  0  0  0  0  0
  -24.1826   19.2362   -8.1453 C   0  0  0  0  0  0
  -24.0592   18.9942   -9.6569 C   0  0  0  0  0  0
  -18.1295   17.4852  -16.2160 C   0  0  0  0  0  0
  -17.1511   17.6164  -17.1899 C   0  0  0  0  0  0
  -16.4107   18.7564  -17.1925 C   0  0  0  0  0  0
  -16.7423   19.7641  -16.2921 C   0  0  0  0  0  0
  1  2  1  0  0  0
  2  3  1  0  0  0
  3  4  2  0  0  0
  3 34  1  0  0  0
  4  5  1  0  0  0
  4 31  1  0  0  0
  5  6  1  0  0  0
  6  7  2  0  0  0
  6 11  1  0  0  0
  7  8  1  0  0  0
  8  9  2  0  0  0
  9 10  1  0  0  0
  9 12  1  0  0  0
 10 11  2  0  0  0
 12 13  2  0  0  0
 12 14  2  0  0  0
 12 15  1  0  0  0
 15 16  1  0  0  0
 15 30  1  0  0  0
 16 17  1  0  0  0
 17 18  1  0  0  0
 18 19  1  0  0  0
 18 29  1  0  0  0
 19 20  1  0  0  0
 20 21  2  0  0  0
 20 28  1  0  0  0
 21 22  1  0  0  0
 22 23  2  0  0  0
 22 26  1  0  0  0
 23 24  1  0  0  0
 23 27  1  0  0  0
 24 25  1  0  0  0
 25 26  1  0  0  0
 27 28  2  0  0  0
 29 30  1  0  0  0
 31 32  2  0  0  0
 32 33  1  0  0  0
 33 34  2  0  0  0
M  END
>  <CHROM.0>
-61.35053692,67.88347199,-8.21267717,65.49131202,-30.61145482,-175.08753402
-36.94953213,-160.33066795

>  <CHROM.1>
-103.20704262,100.53133748,-77.70526356,28.02212796,179.33532654,-12.36064184
60.47909469,-22.92694352,20.46802210,-12.19298480,-0.33323347,0.65976431
-0.03180295

>  <Name>
F1441-0518

>  <RI>
2.21986e+07

>  <Rbt.Current_Directory>
/home/adria/Escritorio/rDock_CMTR_LC/2pxcA_model/inputs_sah

>  <Rbt.Executable>
rbdock ($Id: //depot/dev/client3/rdock/2013.1/src/exe/rbdock.cxx#4 $)

>  <Rbt.Library>
libRbt.so (2013.1, Build901 2013/11/27)

>  <Rbt.Parameter_File>
/home/adria/Escritorio/rDock_2013.1_src/data/scripts/dock.prm

>  <Rbt.Receptor>
sah_rdock.prm

>  <SCORE>
-250.822

>  <SCORE.INTER>
-8.81779

>  <SCORE.INTER.CONST>
1

>  <SCORE.INTER.POLAR>
-1.12946

>  <SCORE.INTER.REPUL>
0.00734593

>  <SCORE.INTER.ROT>
7

>  <SCORE.INTER.VDW>
-17.4144

>  <SCORE.INTER.norm>
-0.259347

>  <SCORE.INTRA>
-235.123

>  <SCORE.INTRA.DIHEDRAL>
11.1275

>  <SCORE.INTRA.DIHEDRAL.0>
6.6817

>  <SCORE.INTRA.POLAR>
0

>  <SCORE.INTRA.POLAR.0>
0

>  <SCORE.INTRA.REPUL>
0

>  <SCORE.INTRA.REPUL.0>
0

>  <SCORE.INTRA.VDW>
-240.687

>  <SCORE.INTRA.VDW.0>
238.347

>  <SCORE.INTRA.norm>
-6.91539

>  <SCORE.RESTR>
0.0802087

>  <SCORE.RESTR.CAVITY>
0.0802087

>  <SCORE.RESTR.norm>
0.00235908

>  <SCORE.SYSTEM>
-6.9608

>  <SCORE.SYSTEM.CONST>
0

>  <SCORE.SYSTEM.DIHEDRAL>
9.14282

>  <SCORE.SYSTEM.POLAR>
-4.31157

>  <SCORE.SYSTEM.VDW>
3.12711

>  <SCORE.SYSTEM.norm>
-0.20473

>  <SCORE.heavy>
34

>  <SCORE.norm>
-7.37711

$$$$
F1441-0518
  rDOCK(R)          3D
libRbt.so/2013.1/901 2013/11/27
 34 38  0  0  0  0  0  0  0  0999 V2000
  -24.0487   23.0750   -8.0270 C   0  0  0  0  0  0
  -24.1597   23.5982   -9.3543 O   0  0  0  0  0  0
  -23.0983   24.3285   -9.8209 C   0  0  0  0  0  0
  -22.2940   23.7843  -10.8260 C   0  0  0  0  0  0
  -22.4433   22.4203  -11.1293 O   0  0  0  0  0  0
  -21.4512   21.6682  -11.7843 C   0  0  0  0  0  0
  -21.0933   21.9147  -13.4355 C   0  0  0  0  0  0
  -20.6877   20.2634  -14.5565 C   0  0  0  0  0  0
  -20.5509   18.7723  -13.7684 C   0  0  0  0  0  0
  -20.7589   18.7470  -12.1356 C   0  0  0  0  0  0
  -21.2306   20.1045  -11.2001 C   0  0  0  0  0  0
  -19.8808   17.5154  -14.7697 S   0  0  0  0  0  0
  -19.1531   16.6062  -13.9192 O   0  0  0  0  0  0
  -20.9865   17.0804  -15.6002 O   0  0  0  0  0  0
  -18.7930   18.3886  -15.7228 N   0  0  0  0  0  0
  -19.1928   18.8178  -17.0914 C   0  0  0  0  0  0
  -17.9734   19.2726  -17.9754 C   0  0  0  0  0  0
  -16.8126   19.8097  -17.2392 N   0  0  0  0  0  0
  -15.6210   18.9224  -17.1427 C   0  0  0  0  0  0
  -15.7274   17.4207  -17.4354 C   0  0  0  0  0  0
  -16.5382   16.6563  -16.5926 C   0  0  0  0  0  0
  -16.5547   15.3469  -16.9259 C   0  0  0  0  0  0
  -15.5170   14.6066  -18.0453 C   0  0  0  0  0  0
  -14.8675   12.9992  -17.4584 O   0  0  0  0  0  0
  -15.5693   12.5850  -15.6748 C   0  0  0  0  0  0
  -16.7456   14.2814  -15.4587 O   0  0  0  0  0  0
  -14.8186   15.4079  -18.8935 C   0  0  0  0  0  0
  -15.0115   16.8146  -18.6044 C   0  0  0  0  0  0
  -17.2856   20.3595  -15.9608 C   0  0  0  0  0  0
  -17.8732   19.3087  -15.0073 C   0  0  0  0  0  0
  -21.4011   24.7048  -11.4075 C   0  0  0  0  0  0
  -21.1389   25.9921  -10.9639 C   0  0  0  0  0  0
  -21.8098   26.4315   -9.8662 C   0  0  0  0  0  0
  -22.7900   25.6112   -9.3163 C   0  0  0  0  0  0
  1  2  1  0  0  0
  2  3  1  0  0  0
  3  4  2  0  0  0
  3 34  1  0  0  0
  4  5  1  0  0  0
  4 31  1  0  0  0
  5  6  1  0  0  0
  6  7  2  0  0  0
  6 11  1  0  0  0
  7  8  1  0  0  0
  8  9  2  0  0  0
  9 10  1  0  0  0
  9 12  1  0  0  0
 10 11  2  0  0  0
 12 13  2  0  0  0
 12 14  2  0  0  0
 12 15  1  0  0  0
 15 16  1  0  0  0
 15 30  1  0  0  0
 16 17  1  0  0  0
 17 18  1  0  0  0
 18 19  1  0  0  0
 18 29  1  0  0  0
 19 20  1  0  0  0
 20 21  2  0  0  0
 20 28  1  0  0  0
 21 22  1  0  0  0
 22 23  2  0  0  0
 22 26  1  0  0  0
 23 24  1  0  0  0
 23 27  1  0  0  0
 24 25  1  0  0  0
 25 26  1  0  0  0
 27 28  2  0  0  0
 29 30  1  0  0  0
 31 32  2  0  0  0
 32 33  1  0  0  0
 33 34  2  0  0  0
M  END
>  <CHROM.0>
-62.45455382,-70.02039940,74.16261486,59.45693007,-31.73878782,-64.24301203
-38.01826463,-52.14171714

>  <CHROM.1>
109.61494243,-159.33544679,-70.64820718,149.01860768,-98.00942199,-16.52878665
-63.69525636,-19.26390896,19.37477587,-14.23047174,2.44621144,0.84666044
-0.03590643

>  <Name>
F1441-0518

>  <RI>
2.21986e+07

>  <Rbt.Current_Directory>
/home/adria/Escritorio/rDock_CMTR_LC/2pxcA_model/inputs_sah

>  <Rbt.Executable>
rbdock ($Id: //depot/dev/client3/rdock/2013.1/src/exe/rbdock.cxx#4 $)

>  <Rbt.Library>
libRbt.so (2013.1, Build901 2013/11/27)

>  <Rbt.Parameter_File>
/home/adria/Escritorio/rDock_2013.1_src/data/scripts/dock.prm

>  <Rbt.Receptor>
sah_rdock.prm

>  <SCORE>
-266.325

>  <SCORE.INTER>
-23.4779

>  <SCORE.INTER.CONST>
1

>  <SCORE.INTER.POLAR>
-1.79805

>  <SCORE.INTER.REPUL>
0

>  <SCORE.INTER.ROT>
7

>  <SCORE.INTER.VDW>
-29.7645

>  <SCORE.INTER.norm>
-0.690527

>  <SCORE.INTRA>
-237.285

>  <SCORE.INTRA.DIHEDRAL>
6.69097

>  <SCORE.INTRA.DIHEDRAL.0>
6.6817

>  <SCORE.INTRA.POLAR>
0

>  <SCORE.INTRA.POLAR.0>
0

>  <SCORE.INTRA.REPUL>
0

>  <SCORE.INTRA.REPUL.0>
0

>  <SCORE.INTRA.VDW>
-240.63

>  <SCORE.INTRA.VDW.0>
238.347

>  <SCORE.INTRA.norm>
-6.97896

>  <SCORE.RESTR>
0

>  <SCORE.RESTR.CAVITY>
0

>  <SCORE.RESTR.norm>
0

>  <SCORE.SYSTEM>
-5.56232

>  <SCORE.SYSTEM.CONST>
0

>  <SCORE.SYSTEM.DIHEDRAL>
8.36109

>  <SCORE.SYSTEM.POLAR>
-3.63742

>  <SCORE.SYSTEM.REPUL>
0.0390691

>  <SCORE.SYSTEM.VDW>
2.42902

>  <SCORE.SYSTEM.norm>
-0.163598

>  <SCORE.heavy>
34

>  <SCORE.norm>
-7.83308

$$$$
F1441-0518
  rDOCK(R)          3D
libRbt.so/2013.1/901 2013/11/27
 34 38  0  0  0  0  0  0  0  0999 V2000
  -22.3567   27.1859   -8.7080 C   0  0  0  0  0  0
  -22.0174   26.8709  -10.0621 O   0  0  0  0  0  0
  -21.0808   25.8888  -10.2514 C   0  0  0  0  0  0
  -21.3346   24.8858  -11.1910 C   0  0  0  0  0  0
  -22.6367   24.7753  -11.7079 O   0  0  0  0  0  0
  -22.9887   23.8478  -12.7053 C   0  0  0  0  0  0
  -24.1744   24.2109  -13.8790 C   0  0  0  0  0  0
  -25.4385   22.7087  -14.4208 C   0  0  0  0  0  0
  -25.1398   21.1540  -13.8233 C   0  0  0  0  0  0
  -23.8410   20.9506  -12.8324 C   0  0  0  0  0  0
  -22.8494   22.2288  -12.2638 C   0  0  0  0  0  0
  -26.0731   19.9144  -14.6130 S   0  0  0  0  0  0
  -27.0251   19.3968  -13.6615 O   0  0  0  0  0  0
  -26.4815   20.5088  -15.8706 O   0  0  0  0  0  0
  -24.8910   18.7471  -14.9196 N   0  0  0  0  0  0
  -25.1408   17.3288  -14.5416 C   0  0  0  0  0  0
  -23.8339   16.4528  -14.5372 C   0  0  0  0  0  0
  -22.7620   16.8958  -15.4497 N   0  0  0  0  0  0
  -21.5850   17.5541  -14.8188 C   0  0  0  0  0  0
  -20.5219   18.2585  -15.6709 C   0  0  0  0  0  0
  -19.6821   17.4550  -16.4463 C   0  0  0  0  0  0
  -18.7743   18.1686  -17.1483 C   0  0  0  0  0  0
  -18.4531   19.8214  -16.9408 C   0  0  0  0  0  0
  -16.6631   20.2037  -16.9418 O   0  0  0  0  0  0
  -15.6115   18.5671  -17.1877 C   0  0  0  0  0  0
  -17.2104   17.2536  -17.3510 O   0  0  0  0  0  0
  -19.3555   20.5635  -16.2451 C   0  0  0  0  0  0
  -20.4206   19.7537  -15.6888 C   0  0  0  0  0  0
  -23.3731   17.6416  -16.5590 C   0  0  0  0  0  0
  -24.0575   18.9484  -16.1318 C   0  0  0  0  0  0
  -20.2164   24.0843  -11.4908 C   0  0  0  0  0  0
  -18.9969   24.0901  -10.8308 C   0  0  0  0  0  0
  -18.8425   24.9576   -9.7956 C   0  0  0  0  0  0
  -19.8696   25.8565   -9.5255 C   0  0  0  0  0  0
  1  2  1  0  0  0
  2  3  1  0  0  0
  3  4  2  0  0  0
  3 34  1  0  0  0
  4  5  1  0  0  0
  4 31  1  0  0  0
  5  6  1  0  0  0
  6  7  2  0  0  0
  6 11  1  0  0  0
  7  8  1  0  0  0
  8  9  2  0  0  0
  9 10  1  0  0  0
  9 12  1  0  0  0
 10 11  2  0  0  0
 12 13  2  0  0  0
 12 14  2  0  0  0
 12 15  1  0  0  0
 15 16  1  0  0  0
 15 30  1  0  0  0
 16 17  1  0  0  0
 17 18  1  0  0  0
 18 19  1  0  0  0
 18 29  1  0  0  0
 19 20  1  0  0  0
 20 21  2  0  0  0
 20 28  1  0  0  0
 21 22  1  0  0  0
 22 23  2  0  0  0
 22 26  1  0  0  0
 23 24  1  0  0  0
 23 27  1  0  0  0
 24 25  1  0  0  0
 25 26  1  0  0  0
 27 28  2  0  0  0
 29 30  1  0  0  0
 31 32  2  0  0  0
 32 33  1  0  0  0
 33 34  2  0  0  0
M  END
>  <CHROM.0>
-173.05485221,-74.26889501,-147.51337185,62.55968631,-31.82179565,-47.67511676
-156.18982807,-51.78356874

>  <CHROM.1>
133.02716067,176.75845989,-146.33952955,-111.70609599,130.61963904,-169.88492717
-70.65727268,-22.06911513,21.02176952,-13.98950050,1.61221118,0.11722253
0.64566220

>  <Name>
F1441-0518

>  <RI>
2.21986e+07

>  <Rbt.Current_Directory>
/home/adria/Escritorio/rDock_CMTR_LC/2pxcA_model/inputs_sah

>  <Rbt.Executable>
rbdock ($Id: //depot/dev/client3/rdock/2013.1/src/exe/rbdock.cxx#4 $)

>  <Rbt.Library>
libRbt.so (2013.1, Build901 2013/11/27)

>  <Rbt.Parameter_File>
/home/adria/Escritorio/rDock_2013.1_src/data/scripts/dock.prm

>  <Rbt.Receptor>
sah_rdock.prm

>  <SCORE>
-252.018

>  <SCORE.INTER>
-9.32949

>  <SCORE.INTER.CONST>
1

>  <SCORE.INTER.POLAR>
-1.4387

>  <SCORE.INTER.REPUL>
0

>  <SCORE.INTER.ROT>
7

>  <SCORE.INTER.VDW>
-16.8379

>  <SCORE.INTER.norm>
-0.274397

>  <SCORE.INTRA>
-238.449

>  <SCORE.INTRA.DIHEDRAL>
2.72968

>  <SCORE.INTRA.DIHEDRAL.0>
6.6817

>  <SCORE.INTRA.POLAR>
0

>  <SCORE.INTRA.POLAR.0>
0

>  <SCORE.INTRA.REPUL>
0

>  <SCORE.INTRA.REPUL.0>
0

>  <SCORE.INTRA.VDW>
-239.814

>  <SCORE.INTRA.VDW.0>
238.347

>  <SCORE.INTRA.norm>
-7.0132

>  <SCORE.RESTR>
0

>  <SCORE.RESTR.CAVITY>
0

>  <SCORE.RESTR.norm>
0

>  <SCORE.SYSTEM>
-4.23957

>  <SCORE.SYSTEM.CONST>
0

>  <SCORE.SYSTEM.DIHEDRAL>
11.0675

>  <SCORE.SYSTEM.POLAR>
-3.81174

>  <SCORE.SYSTEM.REPUL>
0.0479216

>  <SCORE.SYSTEM.VDW>
2.94697

>  <SCORE.SYSTEM.norm>
-0.124693

>  <SCORE.heavy>
34

>  <SCORE.norm>
-7.41229

$$$$
F1441-0518
  rDOCK(R)          3D
libRbt.so/2013.1/901 2013/11/27
 34 38  0  0  0  0  0  0  0  0999 V2000
  -14.4579   18.4586  -17.8394 C   0  0  0  0  0  0
  -14.4366   17.7715  -16.5843 O   0  0  0  0  0  0
  -15.4528   16.8827  -16.3497 C   0  0  0  0  0  0
  -16.7421   17.3743  -16.1280 C   0  0  0  0  0  0
  -16.8958   18.7515  -15.8944 O   0  0  0  0  0  0
  -18.1062   19.3250  -15.4644 C   0  0  0  0  0  0
  -18.6229   20.8474  -16.0396 C   0  0  0  0  0  0
  -19.5233   22.0912  -14.7018 C   0  0  0  0  0  0
  -19.8705   21.4928  -13.1575 C   0  0  0  0  0  0
  -19.4535   19.9347  -12.8282 C   0  0  0  0  0  0
  -18.5777   18.9215  -13.8991 C   0  0  0  0  0  0
  -20.9253   22.5242  -12.2330 S   0  0  0  0  0  0
  -20.2461   22.8789  -11.0113 O   0  0  0  0  0  0
  -21.3848   23.5212  -13.1799 O   0  0  0  0  0  0
  -22.2017   21.4740  -11.8840 N   0  0  0  0  0  0
  -23.0063   20.8974  -12.9962 C   0  0  0  0  0  0
  -24.3618   20.2625  -12.5116 C   0  0  0  0  0  0
  -24.3735   19.7568  -11.1252 N   0  0  0  0  0  0
  -25.1124   20.5777  -10.1268 C   0  0  0  0  0  0
  -24.4891   21.8446   -9.5278 C   0  0  0  0  0  0
  -24.4562   22.9875  -10.3306 C   0  0  0  0  0  0
  -23.8772   24.0433   -9.7172 C   0  0  0  0  0  0
  -23.0179   23.9784   -8.2560 C   0  0  0  0  0  0
  -21.4681   24.9513   -8.2983 O   0  0  0  0  0  0
  -21.2409   25.8051  -10.0489 C   0  0  0  0  0  0
  -23.0009   25.1137  -10.9049 O   0  0  0  0  0  0
  -23.1605   22.8699   -7.4815 C   0  0  0  0  0  0
  -23.9699   21.8527   -8.1218 C   0  0  0  0  0  0
  -22.9979   19.4038  -10.7464 C   0  0  0  0  0  0
  -22.0369   20.6007  -10.6946 C   0  0  0  0  0  0
  -17.7450   16.3864  -16.1538 C   0  0  0  0  0  0
  -17.5500   15.0141  -16.1961 C   0  0  0  0  0  0
  -16.2697   14.5583  -16.2282 C   0  0  0  0  0  0
  -15.2378   15.4870  -16.3220 C   0  0  0  0  0  0
  1  2  1  0  0  0
  2  3  1  0  0  0
  3  4  2  0  0  0
  3 34  1  0  0  0
  4  5  1  0  0  0
  4 31  1  0  0  0
  5  6  1  0  0  0
  6  7  2  0  0  0
  6 11  1  0  0  0
  7  8  1  0  0  0
  8  9  2  0  0  0
  9 10  1  0  0  0
  9 12  1  0  0  0
 10 11  2  0  0  0
 12 13  2  0  0  0
 12 14  2  0  0  0
 12 15  1  0  0  0
 15 16  1  0  0  0
 15 30  1  0  0  0
 16 17  1  0  0  0
 17 18  1  0  0  0
 18 19  1  0  0  0
 18 29  1  0  0  0
 19 20  1  0  0  0
 20 21  2  0  0  0
 20 28  1  0  0  0
 21 22  1  0  0  0
 22 23  2  0  0  0
 22 26  1  0  0  0
 23 24  1  0  0  0
 23 27  1  0  0  0
 24 25  1  0  0  0
 25 26  1  0  0  0
 27 28  2  0  0  0
 29 30  1  0  0  0
 31 32  2  0  0  0
 32 33  1  0  0  0
 33 34  2  0  0  0
M  END
>  <CHROM.0>
-177.33947763,67.22617338,-11.42751576,65.16826427,167.93095044,62.92574479
-156.97403910,-161.42693533

>  <CHROM.1>
-70.48792476,-170.21738202,-142.39471738,-122.29414782,-62.19838540,-78.82209895
76.03017380,-20.43186865,20.68426672,-12.70970279,-0.73476662,0.57444189
0.29740946

>  <Name>
F1441-0518

>  <RI>
2.21986e+07

>  <Rbt.Current_Directory>
/home/adria/Escritorio/rDock_CMTR_LC/2pxcA_model/inputs_sah

>  <Rbt.Executable>
rbdock ($Id: //depot/dev/client3/rdock/2013.1/src/exe/rbdock.cxx#4 $)

>  <Rbt.Library>
libRbt.so (2013.1, Build901 2013/11/27)

>  <Rbt.Parameter_File>
/home/adria/Escritorio/rDock_2013.1_src/data/scripts/dock.prm

>  <Rbt.Receptor>
sah_rdock.prm

>  <SCORE>
-257.902

>  <SCORE.INTER>
-15.1149

>  <SCORE.INTER.CONST>
1

>  <SCORE.INTER.POLAR>
-0.41474

>  <SCORE.INTER.REPUL>
0

>  <SCORE.INTER.ROT>
7

>  <SCORE.INTER.VDW>
-26.1048

>  <SCORE.INTER.norm>
-0.444556

>  <SCORE.INTRA>
-241.019

>  <SCORE.INTRA.DIHEDRAL>
3.57304

>  <SCORE.INTRA.DIHEDRAL.0>
6.6817

>  <SCORE.INTRA.POLAR>
0

>  <SCORE.INTRA.POLAR.0>
0

>  <SCORE.INTRA.REPUL>
0

>  <SCORE.INTRA.REPUL.0>
0

>  <SCORE.INTRA.VDW>
-242.805

>  <SCORE.INTRA.VDW.0>
238.347

>  <SCORE.INTRA.norm>
-7.08878

>  <SCORE.RESTR>
0

>  <SCORE.RESTR.CAVITY>
0

>  <SCORE.RESTR.norm>
0

>  <SCORE.SYSTEM>
-1.76864

>  <SCORE.SYSTEM.CONST>
0

>  <SCORE.SYSTEM.DIHEDRAL>
6.06862

>  <SCORE.SYSTEM.POLAR>
-4.198

>  <SCORE.SYSTEM.VDW>
9.47024

>  <SCORE.SYSTEM.norm>
-0.0520188

>  <SCORE.heavy>
34

>  <SCORE.norm>
-7.58536

$$$$
F1441-0518
  rDOCK(R)          3D
libRbt.so/2013.1/901 2013/11/27
 34 38  0  0  0  0  0  0  0  0999 V2000
  -23.7245   25.7357  -12.6958 C   0  0  0  0  0  0
  -24.3845   24.4811  -12.4997 O   0  0  0  0  0  0
  -24.6033   24.0945  -11.2034 C   0  0  0  0  0  0
  -23.5078   23.7455  -10.4089 C   0  0  0  0  0  0
  -22.2665   23.5522  -11.0386 O   0  0  0  0  0  0
  -22.0928   22.6994  -12.1439 C   0  0  0  0  0  0
  -23.1708   21.4115  -12.4516 C   0  0  0  0  0  0
  -22.3678   19.6680  -13.1322 C   0  0  0  0  0  0
  -20.7218   19.6416  -13.5237 C   0  0  0  0  0  0
  -19.8649   21.0332  -13.3257 C   0  0  0  0  0  0
  -20.4975   22.4672  -12.6300 C   0  0  0  0  0  0
  -20.2376   18.2157  -14.3976 S   0  0  0  0  0  0
  -19.5571   17.3373  -13.4784 O   0  0  0  0  0  0
  -21.4263   17.8081  -15.1205 O   0  0  0  0  0  0
  -19.1241   18.8555  -15.4951 N   0  0  0  0  0  0
  -19.6049   19.6924  -16.6289 C   0  0  0  0  0  0
  -18.5211   19.8900  -17.7520 C   0  0  0  0  0  0
  -17.1159   19.8173  -17.3070 N   0  0  0  0  0  0
  -16.3709   18.5788  -17.6646 C   0  0  0  0  0  0
  -16.8593   17.2007  -17.2015 C   0  0  0  0  0  0
  -16.1207   16.5570  -16.2054 C   0  0  0  0  0  0
  -16.6245   15.3467  -15.8777 C   0  0  0  0  0  0
  -17.8378   14.5252  -16.7327 C   0  0  0  0  0  0
  -17.4725   12.7452  -16.9522 O   0  0  0  0  0  0
  -15.7557   12.2890  -16.1219 C   0  0  0  0  0  0
  -15.3103   14.1802  -15.3916 O   0  0  0  0  0  0
  -18.5762   15.2327  -17.6290 C   0  0  0  0  0  0
  -18.1022   16.5938  -17.7788 C   0  0  0  0  0  0
  -17.0569   20.1922  -15.8871 C   0  0  0  0  0  0
  -17.7907   19.2193  -14.9525 C   0  0  0  0  0  0
  -23.8104   23.6149   -9.0400 C   0  0  0  0  0  0
  -25.0747   23.6234   -8.4704 C   0  0  0  0  0  0
  -26.1402   23.7846   -9.2991 C   0  0  0  0  0  0
  -25.8999   24.0349  -10.6466 C   0  0  0  0  0  0
  1  2  1  0  0  0
  2  3  1  0  0  0
  3  4  2  0  0  0
  3 34  1  0  0  0
  4  5  1  0  0  0
  4 31  1  0  0  0
  5  6  1  0  0  0
  6  7  2  0  0  0
  6 11  1  0  0  0
  7  8  1  0  0  0
  8  9  2  0  0  0
  9 10  1  0  0  0
  9 12  1  0  0  0
 10 11  2  0  0  0
 12 13  2  0  0  0
 12 14  2  0  0  0
 12 15  1  0  0  0
 15 16  1  0  0  0
 15 30  1  0  0  0
 16 17  1  0  0  0
 17 18  1  0  0  0
 18 19  1  0  0  0
 18 29  1  0  0  0
 19 20  1  0  0  0
 20 21  2  0  0  0
 20 28  1  0  0  0
 21 22  1  0  0  0
 22 23  2  0  0  0
 22 26  1  0  0  0
 23 24  1  0  0  0
 23 27  1  0  0  0
 24 25  1  0  0  0
 25 26  1  0  0  0
 27 28  2  0  0  0
 29 30  1  0  0  0
 31 32  2  0  0  0
 32 33  1  0  0  0
 33 34  2  0  0  0
M  END
>  <CHROM.0>
-64.26463967,-72.52573855,-44.29151340,63.58183554,168.27435005,58.35040172
-155.98399346,-158.14455993

>  <CHROM.1>
-68.82686003,-51.97607671,-23.45998322,-103.07780398,-71.76749728,-58.81172841
-108.30885451,-20.18882094,19.54687224,-14.19346084,-2.57178637,-0.81223611
2.91119945

>  <Name>
F1441-0518

>  <RI>
2.21986e+07

>  <Rbt.Current_Directory>
/home/adria/Escritorio/rDock_CMTR_LC/2pxcA_model/inputs_sah

>  <Rbt.Executable>
rbdock ($Id: //depot/dev/client3/rdock/2013.1/src/exe/rbdock.cxx#4 $)

>  <Rbt.Library>
libRbt.so (2013.1, Build901 2013/11/27)

>  <Rbt.Parameter_File>
/home/adria/Escritorio/rDock_2013.1_src/data/scripts/dock.prm

>  <Rbt.Receptor>
sah_rdock.prm

>  <SCORE>
-259.994

>  <SCORE.INTER>
-16.6655

>  <SCORE.INTER.CONST>
1

>  <SCORE.INTER.POLAR>
-1.60863

>  <SCORE.INTER.REPUL>
0.00326588

>  <SCORE.INTER.ROT>
7

>  <SCORE.INTER.VDW>
-23.6125

>  <SCORE.INTER.norm>
-0.490161

>  <SCORE.INTRA>
-240.538

>  <SCORE.INTRA.DIHEDRAL>
3.6709

>  <SCORE.INTRA.DIHEDRAL.0>
6.6817

>  <SCORE.INTRA.POLAR>
0

>  <SCORE.INTRA.POLAR.0>
0

>  <SCORE.INTRA.REPUL>
0

>  <SCORE.INTRA.REPUL.0>
0

>  <SCORE.INTRA.VDW>
-242.373

>  <SCORE.INTRA.VDW.0>
238.347

>  <SCORE.INTRA.norm>
-7.07464

>  <SCORE.RESTR>
0

>  <SCORE.RESTR.CAVITY>
0

>  <SCORE.RESTR.norm>
0

>  <SCORE.SYSTEM>
-2.7913

>  <SCORE.SYSTEM.CONST>
0

>  <SCORE.SYSTEM.DIHEDRAL>
4.04949

>  <SCORE.SYSTEM.POLAR>
-4.00126

>  <SCORE.SYSTEM.REPUL>
0.0376776

>  <SCORE.SYSTEM.VDW>
8.59985

>  <SCORE.SYSTEM.norm>
-0.0820972

>  <SCORE.heavy>
34

>  <SCORE.norm>
-7.64689

$$$$
F1441-0518
  rDOCK(R)          3D
libRbt.so/2013.1/901 2013/11/27
 34 38  0  0  0  0  0  0  0  0999 V2000
  -24.7303   23.6665  -12.8748 C   0  0  0  0  0  0
  -23.3424   23.3237  -12.8127 O   0  0  0  0  0  0
  -22.5601   24.0668  -11.9680 C   0  0  0  0  0  0
  -21.8261   23.4113  -10.9757 C   0  0  0  0  0  0
  -22.1194   22.0617  -10.7161 O   0  0  0  0  0  0
  -22.1266   21.0731  -11.7170 C   0  0  0  0  0  0
  -22.2847   19.4175  -11.3308 C   0  0  0  0  0  0
  -21.1720   18.0989  -12.4130 C   0  0  0  0  0  0
  -20.2980   18.6848  -13.7383 C   0  0  0  0  0  0
  -20.3981   20.2939  -14.0710 C   0  0  0  0  0  0
  -21.2231   21.4341  -13.0913 C   0  0  0  0  0  0
  -19.6680   17.4285  -14.7660 S   0  0  0  0  0  0
  -18.8682   16.5452  -13.9538 O   0  0  0  0  0  0
  -20.8157   16.9607  -15.5180 O   0  0  0  0  0  0
  -18.6624   18.3106  -15.7978 N   0  0  0  0  0  0
  -19.2602   19.1140  -16.8997 C   0  0  0  0  0  0
  -18.2067   19.5575  -17.9808 C   0  0  0  0  0  0
  -16.8186   19.7032  -17.5014 N   0  0  0  0  0  0
  -15.8637   18.6333  -17.9017 C   0  0  0  0  0  0
  -15.9396   17.2328  -17.2810 C   0  0  0  0  0  0
  -17.0570   16.4523  -17.5877 C   0  0  0  0  0  0
  -17.0353   15.2441  -16.9829 C   0  0  0  0  0  0
  -15.9538   14.7778  -15.7619 C   0  0  0  0  0  0
  -16.7707   13.8765  -14.3942 O   0  0  0  0  0  0
  -18.6936   13.7038  -14.7374 C   0  0  0  0  0  0
  -18.7158   14.6645  -16.5772 O   0  0  0  0  0  0
  -14.8418   15.5369  -15.5715 C   0  0  0  0  0  0
  -14.8343   16.7199  -16.4083 C   0  0  0  0  0  0
  -16.8515   20.0030  -16.0629 C   0  0  0  0  0  0
  -17.4224   18.8677  -15.2005 C   0  0  0  0  0  0
  -20.8700   24.2246  -10.3377 C   0  0  0  0  0  0
  -20.7297   25.5970  -10.4775 C   0  0  0  0  0  0
  -21.5838   26.2372  -11.3192 C   0  0  0  0  0  0
  -22.4746   25.4732  -12.0667 C   0  0  0  0  0  0
  1  2  1  0  0  0
  2  3  1  0  0  0
  3  4  2  0  0  0
  3 34  1  0  0  0
  4  5  1  0  0  0
  4 31  1  0  0  0
  5  6  1  0  0  0
  6  7  2  0  0  0
  6 11  1  0  0  0
  7  8  1  0  0  0
  8  9  2  0  0  0
  9 10  1  0  0  0
  9 12  1  0  0  0
 10 11  2  0  0  0
 12 13  2  0  0  0
 12 14  2  0  0  0
 12 15  1  0  0  0
 15 16  1  0  0  0
 15 30  1  0  0  0
 16 17  1  0  0  0
 17 18  1  0  0  0
 18 19  1  0  0  0
 18 29  1  0  0  0
 19 20  1  0  0  0
 20 21  2  0  0  0
 20 28  1  0  0  0
 21 22  1  0  0  0
 22 23  2  0  0  0
 22 26  1  0  0  0
 23 24  1  0  0  0
 23 27  1  0  0  0
 24 25  1  0  0  0
 25 26  1  0  0  0
 27 28  2  0  0  0
 29 30  1  0  0  0
 31 32  2  0  0  0
 32 33  1  0  0  0
 33 34  2  0  0  0
M  END
>  <CHROM.0>
-62.94248624,-169.22409364,-42.98729522,-60.83038341,-28.53390036,61.39424012
-157.14746527,-162.73534370

>  <CHROM.1>
123.80447583,53.94195483,171.83123633,-55.74352695,-76.67609775,-72.19272699
67.57325855,-19.44250299,19.29362927,-14.35741767,2.32262820,0.73484500,-0.01683253

>  <Name>
F1441-0518

>  <RI>
2.21986e+07

>  <Rbt.Current_Directory>
/home/adria/Escritorio/rDock_CMTR_LC/2pxcA_model/inputs_sah

>  <Rbt.Executable>
rbdock ($Id: //depot/dev/client3/rdock/2013.1/src/exe/rbdock.cxx#4 $)

>  <Rbt.Library>
libRbt.so (2013.1, Build901 2013/11/27)

>  <Rbt.Parameter_File>
/home/adria/Escritorio/rDock_2013.1_src/data/scripts/dock.prm

>  <Rbt.Receptor>
sah_rdock.prm

>  <SCORE>
-262.331

>  <SCORE.INTER>
-14.7607

>  <SCORE.INTER.CONST>
1

>  <SCORE.INTER.POLAR>
-1.56989

>  <SCORE.INTER.REPUL>
0.0263274

>  <SCORE.INTER.ROT>
7

>  <SCORE.INTER.VDW>
-21.9547

>  <SCORE.INTER.norm>
-0.434138

>  <SCORE.INTRA>
-241.385

>  <SCORE.INTRA.DIHEDRAL>
2.22613

>  <SCORE.INTRA.DIHEDRAL.0>
6.6817

>  <SCORE.INTRA.POLAR>
0

>  <SCORE.INTRA.POLAR.0>
0

>  <SCORE.INTRA.REPUL>
0

>  <SCORE.INTRA.REPUL.0>
0

>  <SCORE.INTRA.VDW>
-242.498

>  <SCORE.INTRA.VDW.0>
238.347

>  <SCORE.INTRA.norm>
-7.09957

>  <SCORE.RESTR>
0

>  <SCORE.RESTR.CAVITY>
0

>  <SCORE.RESTR.norm>
0

>  <SCORE.SYSTEM>
-6.1845

>  <SCORE.SYSTEM.CONST>
0

>  <SCORE.SYSTEM.DIHEDRAL>
6.71796

>  <SCORE.SYSTEM.POLAR>
-3.76562

>  <SCORE.SYSTEM.VDW>
3.25964

>  <SCORE.SYSTEM.norm>
-0.181897

>  <SCORE.heavy>
34

>  <SCORE.norm>
-7.71561

$$$$
F1441-0518
  rDOCK(R)          3D
libRbt.so/2013.1/901 2013/11/27
 34 38  0  0  0  0  0  0  0  0999 V2000
  -23.5436   25.8495  -12.4415 C   0  0  0  0  0  0
  -24.6015   24.9004  -12.2743 O   0  0  0  0  0  0
  -24.6999   24.2950  -11.0490 C   0  0  0  0  0  0
  -23.6045   23.5777  -10.5603 C   0  0  0  0  0  0
  -22.5536   23.2865  -11.4467 O   0  0  0  0  0  0
  -21.9695   22.0108  -11.5495 C   0  0  0  0  0  0
  -20.2771   21.8136  -11.6589 C   0  0  0  0  0  0
  -19.5879   20.3657  -12.9145 C   0  0  0  0  0  0
  -20.7127   19.3283  -13.6370 C   0  0  0  0  0  0
  -22.3038   19.5565  -13.2818 C   0  0  0  0  0  0
  -22.9063   20.8517  -12.3332 C   0  0  0  0  0  0
  -19.9881   17.9459  -14.4087 S   0  0  0  0  0  0
  -19.2136   17.2368  -13.4203 O   0  0  0  0  0  0
  -21.0757   17.3197  -15.1343 O   0  0  0  0  0  0
  -18.9480   18.6853  -15.5157 N   0  0  0  0  0  0
  -19.5109   19.3618  -16.7168 C   0  0  0  0  0  0
  -18.4295   19.6591  -17.8202 C   0  0  0  0  0  0
  -17.0485   19.8400  -17.3322 N   0  0  0  0  0  0
  -16.1045   18.7165  -17.5838 C   0  0  0  0  0  0
  -16.5910   17.2620  -17.5937 C   0  0  0  0  0  0
  -16.4619   16.5480  -18.7876 C   0  0  0  0  0  0
  -16.9300   15.2836  -18.6964 C   0  0  0  0  0  0
  -17.8367   14.6645  -17.4032 C   0  0  0  0  0  0
  -19.2573   13.6493  -17.9522 O   0  0  0  0  0  0
  -19.3256   13.5654  -19.9100 C   0  0  0  0  0  0
  -17.6344   14.7113  -20.2777 O   0  0  0  0  0  0
  -17.8519   15.3694  -16.2404 C   0  0  0  0  0  0
  -17.1498   16.6318  -16.3539 C   0  0  0  0  0  0
  -17.1038   20.3079  -15.9400 C   0  0  0  0  0  0
  -17.7104   19.2908  -14.9622 C   0  0  0  0  0  0
  -23.7134   23.2180   -9.2034 C   0  0  0  0  0  0
  -24.8381   23.3497   -8.4031 C   0  0  0  0  0  0
  -25.9532   23.8886   -8.9635 C   0  0  0  0  0  0
  -25.8733   24.3704  -10.2665 C   0  0  0  0  0  0
  1  2  1  0  0  0
  2  3  1  0  0  0
  3  4  2  0  0  0
  3 34  1  0  0  0
  4  5  1  0  0  0
  4 31  1  0  0  0
  5  6  1  0  0  0
  6  7  2  0  0  0
  6 11  1  0  0  0
  7  8  1  0  0  0
  8  9  2  0  0  0
  9 10  1  0  0  0
  9 12  1  0  0  0
 10 11  2  0  0  0
 12 13  2  0  0  0
 12 14  2  0  0  0
 12 15  1  0  0  0
 15 16  1  0  0  0
 15 30  1  0  0  0
 16 17  1  0  0  0
 17 18  1  0  0  0
 18 19  1  0  0  0
 18 29  1  0  0  0
 19 20  1  0  0  0
 20 21  2  0  0  0
 20 28  1  0  0  0
 21 22  1  0  0  0
 22 23  2  0  0  0
 22 26  1  0  0  0
 23 24  1  0  0  0
 23 27  1  0  0  0
 24 25  1  0  0  0
 25 26  1  0  0  0
 27 28  2  0  0  0
 29 30  1  0  0  0
 31 32  2  0  0  0
 32 33  1  0  0  0
 33 34  2  0  0  0
M  END
>  <CHROM.0>
42.17332522,-74.96885049,73.11230737,65.22568697,-30.18232977,170.01439910
-158.24656957,-161.74017953

>  <CHROM.1>
-57.85192855,-133.41564719,-136.80643387,57.20963203,-72.29249868,-32.84976099
117.48767473,-20.30848387,19.51536796,-14.52661691,-2.27871416,-0.65783585
-2.86235768

>  <Name>
F1441-0518

>  <RI>
2.21986e+07

>  <Rbt.Current_Directory>
/home/adria/Escritorio/rDock_CMTR_LC/2pxcA_model/inputs_sah

>  <Rbt.Executable>
rbdock ($Id: //depot/dev/client3/rdock/2013.1/src/exe/rbdock.cxx#4 $)

>  <Rbt.Library>
libRbt.so (2013.1, Build901 2013/11/27)

>  <Rbt.Parameter_File>
/home/adria/Escritorio/rDock_2013.1_src/data/scripts/dock.prm

>  <Rbt.Receptor>
sah_rdock.prm

>  <SCORE>
-261.562

>  <SCORE.INTER>
-20.5222

>  <SCORE.INTER.CONST>
1

>  <SCORE.INTER.POLAR>
-2.24462

>  <SCORE.INTER.REPUL>
0

>  <SCORE.INTER.ROT>
7

>  <SCORE.INTER.VDW>
-25.2905

>  <SCORE.INTER.norm>
-0.603593

>  <SCORE.INTRA>
-237.613

>  <SCORE.INTRA.DIHEDRAL>
5.94164

>  <SCORE.INTRA.DIHEDRAL.0>
6.6817

>  <SCORE.INTRA.POLAR>
0

>  <SCORE.INTRA.POLAR.0>
0

>  <SCORE.INTRA.REPUL>
0

>  <SCORE.INTRA.REPUL.0>
0

>  <SCORE.INTRA.VDW>
-240.584

>  <SCORE.INTRA.VDW.0>
238.347

>  <SCORE.INTRA.norm>
-6.98861

>  <SCORE.RESTR>
0

>  <SCORE.RESTR.CAVITY>
0

>  <SCORE.RESTR.norm>
0

>  <SCORE.SYSTEM>
-3.42661

>  <SCORE.SYSTEM.CONST>
0

>  <SCORE.SYSTEM.DIHEDRAL>
8.37337

>  <SCORE.SYSTEM.POLAR>
-4.06606

>  <SCORE.SYSTEM.REPUL>
0.157414

>  <SCORE.SYSTEM.VDW>
5.42423

>  <SCORE.SYSTEM.norm>
-0.100783

>  <SCORE.heavy>
34

>  <SCORE.norm>
-7.69299

$$$$
F1441-0518
  rDOCK(R)          3D
libRbt.so/2013.1/901 2013/11/27
 34 38  0  0  0  0  0  0  0  0999 V2000
  -23.9318   23.0810   -7.9127 C   0  0  0  0  0  0
  -24.0221   23.5216   -9.2712 O   0  0  0  0  0  0
  -22.9735   24.2617   -9.7512 C   0  0  0  0  0  0
  -22.2258   23.7595  -10.8197 C   0  0  0  0  0  0
  -22.4090   22.4145  -11.1832 O   0  0  0  0  0  0
  -21.4183   21.6544  -11.8312 C   0  0  0  0  0  0
  -21.0417   21.9029  -13.4779 C   0  0  0  0  0  0
  -20.6423   20.2515  -14.6009 C   0  0  0  0  0  0
  -20.5287   18.7562  -13.8169 C   0  0  0  0  0  0
  -20.7531   18.7273  -12.1863 C   0  0  0  0  0  0
  -21.2199   20.0863  -11.2505 C   0  0  0  0  0  0
  -19.8619   17.4960  -14.8161 S   0  0  0  0  0  0
  -19.1434   16.5819  -13.9631 O   0  0  0  0  0  0
  -20.9667   17.0681  -15.6517 O   0  0  0  0  0  0
  -18.7649   18.3631  -15.7640 N   0  0  0  0  0  0
  -19.1539   18.7900  -17.1364 C   0  0  0  0  0  0
  -17.9270   19.2386  -18.0133 C   0  0  0  0  0  0
  -16.7696   19.7740  -17.2705 N   0  0  0  0  0  0
  -15.5815   18.8832  -17.1635 C   0  0  0  0  0  0
  -15.6894   17.3821  -17.4589 C   0  0  0  0  0  0
  -16.5237   16.6221  -16.6353 C   0  0  0  0  0  0
  -16.5397   15.3128  -16.9693 C   0  0  0  0  0  0
  -15.4803   14.5670  -18.0645 C   0  0  0  0  0  0
  -14.8536   12.9559  -17.4630 O   0  0  0  0  0  0
  -15.5987   12.5454  -15.6964 C   0  0  0  0  0  0
  -16.7704   14.2483  -15.5071 O   0  0  0  0  0  0
  -14.7581   15.3645  -18.8961 C   0  0  0  0  0  0
  -14.9499   16.7722  -18.6111 C   0  0  0  0  0  0
  -17.2496   20.3287  -15.9968 C   0  0  0  0  0  0
  -17.8471   19.2822  -15.0447 C   0  0  0  0  0  0
  -21.3483   24.6973  -11.3967 C   0  0  0  0  0  0
  -21.0467   25.9574  -10.9025 C   0  0  0  0  0  0
  -21.6584   26.3487   -9.7533 C   0  0  0  0  0  0
  -22.6232   25.5135   -9.1986 C   0  0  0  0  0  0
  1  2  1  0  0  0
  2  3  1  0  0  0
  3  4  2  0  0  0
  3 34  1  0  0  0
  4  5  1  0  0  0
  4 31  1  0  0  0
  5  6  1  0  0  0
  6  7  2  0  0  0
  6 11  1  0  0  0
  7  8  1  0  0  0
  8  9  2  0  0  0
  9 10  1  0  0  0
  9 12  1  0  0  0
 10 11  2  0  0  0
 12 13  2  0  0  0
 12 14  2  0  0  0
 12 15  1  0  0  0
 15 16  1  0  0  0
 15 30  1  0  0  0
 16 17  1  0  0  0
 17 18  1  0  0  0
 18 19  1  0  0  0
 18 29  1  0  0  0
 19 20  1  0  0  0
 20 21  2  0  0  0
 20 28  1  0  0  0
 21 22  1  0  0  0
 22 23  2  0  0  0
 22 26  1  0  0  0
 23 24  1  0  0  0
 23 27  1  0  0  0
 24 25  1  0  0  0
 25 26  1  0  0  0
 27 28  2  0  0  0
 29 30  1  0  0  0
 31 32  2  0  0  0
 32 33  1  0  0  0
 33 34  2  0  0  0
M  END
>  <CHROM.0>
37.00104145,-171.35190410,75.79781583,-62.86450149,31.41999973,-61.07920960
81.08507390,-161.46756789

>  <CHROM.1>
117.73047395,-154.26897505,-73.59593527,148.57785729,-98.29763419,-16.25889851
-62.90393410,-19.21840578,19.34293519,-14.24275594,2.43564330,0.84967766
-0.02000712

>  <Name>
F1441-0518

>  <RI>
2.21986e+07

>  <Rbt.Current_Directory>
/home/adria/Escritorio/rDock_CMTR_LC/2pxcA_model/inputs_sah

>  <Rbt.Executable>
rbdock ($Id: //depot/dev/client3/rdock/2013.1/src/exe/rbdock.cxx#4 $)

>  <Rbt.Library>
libRbt.so (2013.1, Build901 2013/11/27)

>  <Rbt.Parameter_File>
/home/adria/Escritorio/rDock_2013.1_src/data/scripts/dock.prm

>  <Rbt.Receptor>
sah_rdock.prm

>  <SCORE>
-250.496

>  <SCORE.INTER>
-23.5914

>  <SCORE.INTER.CONST>
1

>  <SCORE.INTER.POLAR>
-1.82644

>  <SCORE.INTER.REPUL>
0

>  <SCORE.INTER.ROT>
7

>  <SCORE.INTER.VDW>
-29.7815

>  <SCORE.INTER.norm>
-0.693864

>  <SCORE.INTRA>
-236.985

>  <SCORE.INTRA.DIHEDRAL>
6.71495

>  <SCORE.INTRA.DIHEDRAL.0>
6.6817

>  <SCORE.INTRA.POLAR>
0

>  <SCORE.INTRA.POLAR.0>
0

>  <SCORE.INTRA.REPUL>
0

>  <SCORE.INTRA.REPUL.0>
0

>  <SCORE.INTRA.VDW>
-240.343

>  <SCORE.INTRA.VDW.0>
238.347

>  <SCORE.INTRA.norm>
-6.97015

>  <SCORE.RESTR>
0

>  <SCORE.RESTR.CAVITY>
0

>  <SCORE.RESTR.norm>
0

>  <SCORE.SYSTEM>
10.0803

>  <SCORE.SYSTEM.CONST>
0

>  <SCORE.SYSTEM.DIHEDRAL>
8.10483

>  <SCORE.SYSTEM.POLAR>
-3.33728

>  <SCORE.SYSTEM.REPUL>
0.132139

>  <SCORE.SYSTEM.VDW>
16.7139

>  <SCORE.SYSTEM.norm>
0.296479

>  <SCORE.heavy>
34

>  <SCORE.norm>
-7.36754

$$$$
F1441-0518
  rDOCK(R)          3D
libRbt.so/2013.1/901 2013/11/27
 34 38  0  0  0  0  0  0  0  0999 V2000
  -22.8474   26.1047  -12.2307 C   0  0  0  0  0  0
  -22.3253   26.8474  -11.1245 O   0  0  0  0  0  0
  -21.2216   26.3294  -10.4989 C   0  0  0  0  0  0
  -21.4014   25.3826   -9.4868 C   0  0  0  0  0  0
  -22.6968   25.1969   -8.9747 O   0  0  0  0  0  0
  -23.5459   24.1578   -9.3973 C   0  0  0  0  0  0
  -24.4400   23.2290   -8.2779 C   0  0  0  0  0  0
  -24.6146   21.2347   -8.6524 C   0  0  0  0  0  0
  -24.0273   20.6401  -10.1237 C   0  0  0  0  0  0
  -23.3438   21.7152  -11.1663 C   0  0  0  0  0  0
  -23.0717   23.3699  -10.8079 C   0  0  0  0  0  0
  -24.5295   19.0082  -10.4644 S   0  0  0  0  0  0
  -24.3601   18.2282   -9.2634 O   0  0  0  0  0  0
  -25.8148   19.1499  -11.1198 O   0  0  0  0  0  0
  -23.3819   18.5353  -11.6103 N   0  0  0  0  0  0
  -21.9870   18.2432  -11.1788 C   0  0  0  0  0  0
  -20.9691   18.1916  -12.3773 C   0  0  0  0  0  0
  -21.5358   17.8042  -13.6837 N   0  0  0  0  0  0
  -21.7078   18.8959  -14.6813 C   0  0  0  0  0  0
  -20.5245   19.3943  -15.5201 C   0  0  0  0  0  0
  -20.1081   18.5930  -16.5862 C   0  0  0  0  0  0
  -19.0537   19.1125  -17.2527 C   0  0  0  0  0  0
  -18.1206   20.4319  -16.7366 C   0  0  0  0  0  0
  -16.3235   20.1604  -16.9534 O   0  0  0  0  0  0
  -15.9852   18.3937  -17.7340 C   0  0  0  0  0  0
  -17.9677   17.8068  -17.9163 O   0  0  0  0  0  0
  -18.6237   21.2211  -15.7502 C   0  0  0  0  0  0
  -19.8705   20.7088  -15.2187 C   0  0  0  0  0  0
  -22.7308   16.9816  -13.4476 C   0  0  0  0  0  0
  -23.8787   17.7306  -12.7550 C   0  0  0  0  0  0
  -20.2165   24.7320   -9.0928 C   0  0  0  0  0  0
  -18.9262   25.0651   -9.4762 C   0  0  0  0  0  0
  -18.7704   26.1144  -10.3263 C   0  0  0  0  0  0
  -19.9097   26.7241  -10.8424 C   0  0  0  0  0  0
  1  2  1  0  0  0
  2  3  1  0  0  0
  3  4  2  0  0  0
  3 34  1  0  0  0
  4  5  1  0  0  0
  4 31  1  0  0  0
  5  6  1  0  0  0
  6  7  2  0  0  0
  6 11  1  0  0  0
  7  8  1  0  0  0
  8  9  2  0  0  0
  9 10  1  0  0  0
  9 12  1  0  0  0
 10 11  2  0  0  0
 12 13  2  0  0  0
 12 14  2  0  0  0
 12 15  1  0  0  0
 15 16  1  0  0  0
 15 30  1  0  0  0
 16 17  1  0  0  0
 17 18  1  0  0  0
 18 19  1  0  0  0
 18 29  1  0  0  0
 19 20  1  0  0  0
 20 21  2  0  0  0
 20 28  1  0  0  0
 21 22  1  0  0  0
 22 23  2  0  0  0
 22 26  1  0  0  0
 23 24  1  0  0  0
 23 27  1  0  0  0
 24 25  1  0  0  0
 25 26  1  0  0  0
 27 28  2  0  0  0
 29 30  1  0  0  0
 31 32  2  0  0  0
 32 33  1  0  0  0
 33 34  2  0  0  0
M  END
>  <CHROM.0>
-57.77402311,-67.59631152,14.23504253,-56.92793719,-28.48034948,-59.30523969
-35.06308361,-152.29482212

>  <CHROM.1>
-85.86104280,98.04597575,135.41274820,-44.91477217,73.52262677,80.48006108
76.20342992,-21.57540863,21.19388763,-12.31791208,-2.10869545,-0.71463082
-2.64701787

>  <Name>
F1441-0518

>  <RI>
2.21986e+07

>  <Rbt.Current_Directory>
/home/adria/Escritorio/rDock_CMTR_LC/2pxcA_model/inputs_sah

>  <Rbt.Executable>
rbdock ($Id: //depot/dev/client3/rdock/2013.1/src/exe/rbdock.cxx#4 $)

>  <Rbt.Library>
libRbt.so (2013.1, Build901 2013/11/27)

>  <Rbt.Parameter_File>
/home/adria/Escritorio/rDock_2013.1_src/data/scripts/dock.prm

>  <Rbt.Receptor>
sah_rdock.prm

>  <SCORE>
-259.335

>  <SCORE.INTER>
-16.2305

>  <SCORE.INTER.CONST>
1

>  <SCORE.INTER.POLAR>
-1.32381

>  <SCORE.INTER.REPUL>
0

>  <SCORE.INTER.ROT>
7

>  <SCORE.INTER.VDW>
-24.1296

>  <SCORE.INTER.norm>
-0.477369

>  <SCORE.INTRA>
-237.181

>  <SCORE.INTRA.DIHEDRAL>
7.52848

>  <SCORE.INTRA.DIHEDRAL.0>
6.6817

>  <SCORE.INTRA.POLAR>
0

>  <SCORE.INTRA.POLAR.0>
0

>  <SCORE.INTRA.REPUL>
0

>  <SCORE.INTRA.REPUL.0>
0

>  <SCORE.INTRA.VDW>
-240.945

>  <SCORE.INTRA.VDW.0>
238.347

>  <SCORE.INTRA.norm>
-6.9759

>  <SCORE.RESTR>
0

>  <SCORE.RESTR.CAVITY>
0

>  <SCORE.RESTR.norm>
0

>  <SCORE.SYSTEM>
-5.92414

>  <SCORE.SYSTEM.CONST>
0

>  <SCORE.SYSTEM.DIHEDRAL>
9.72828

>  <SCORE.SYSTEM.POLAR>
-4.27243

>  <SCORE.SYSTEM.REPUL>
0.027494

>  <SCORE.SYSTEM.VDW>
3.6005

>  <SCORE.SYSTEM.norm>
-0.174239

>  <SCORE.heavy>
34

>  <SCORE.norm>
-7.62751

$$$$
F1441-0518
  rDOCK(R)          3D
libRbt.so/2013.1/901 2013/11/27
 34 38  0  0  0  0  0  0  0  0999 V2000
  -23.8519   24.7171  -13.4808 C   0  0  0  0  0  0
  -22.8708   24.1324  -12.6187 O   0  0  0  0  0  0
  -22.5890   24.8049  -11.4585 C   0  0  0  0  0  0
  -23.2258   24.4115  -10.2783 C   0  0  0  0  0  0
  -24.3135   23.5268  -10.3746 O   0  0  0  0  0  0
  -24.1594   22.1412  -10.5625 C   0  0  0  0  0  0
  -23.2126   21.1992   -9.4988 C   0  0  0  0  0  0
  -22.0805   19.7201  -10.3224 C   0  0  0  0  0  0
  -22.2702   19.3878  -11.9707 C   0  0  0  0  0  0
  -23.3614   20.2877  -12.8129 C   0  0  0  0  0  0
  -24.2222   21.6207  -12.1627 C   0  0  0  0  0  0
  -21.5080   17.9053  -12.4734 S   0  0  0  0  0  0
  -20.6985   17.4256  -11.3807 O   0  0  0  0  0  0
  -22.5820   17.1168  -13.0447 O   0  0  0  0  0  0
  -20.5065   18.4482  -13.7209 N   0  0  0  0  0  0
  -20.7261   19.7993  -14.3068 C   0  0  0  0  0  0
  -19.9841   20.0042  -15.6789 C   0  0  0  0  0  0
  -18.7621   19.1999  -15.8734 N   0  0  0  0  0  0
  -18.8705   18.0453  -16.8071 C   0  0  0  0  0  0
  -18.0965   16.7461  -16.5514 C   0  0  0  0  0  0
  -18.8168   15.6531  -16.0631 C   0  0  0  0  0  0
  -18.0436   14.5637  -15.8595 C   0  0  0  0  0  0
  -16.3478   14.5428  -15.9012 C   0  0  0  0  0  0
  -15.6144   13.5769  -14.5303 O   0  0  0  0  0  0
  -17.0215   12.8293  -13.3875 C   0  0  0  0  0  0
  -18.6417   13.5673  -14.4545 O   0  0  0  0  0  0
  -15.7113   15.6031  -16.4666 C   0  0  0  0  0  0
  -16.6307   16.6552  -16.8504 C   0  0  0  0  0  0
  -18.1977   18.8835  -14.5537 C   0  0  0  0  0  0
  -19.0955   17.9872  -13.6882 C   0  0  0  0  0  0
  -22.6825   24.9872   -9.1139 C   0  0  0  0  0  0
  -21.7369   26.0000   -9.0587 C   0  0  0  0  0  0
  -21.2670   26.4909  -10.2360 C   0  0  0  0  0  0
  -21.6786   25.8840  -11.4185 C   0  0  0  0  0  0
  1  2  1  0  0  0
  2  3  1  0  0  0
  3  4  2  0  0  0
  3 34  1  0  0  0
  4  5  1  0  0  0
  4 31  1  0  0  0
  5  6  1  0  0  0
  6  7  2  0  0  0
  6 11  1  0  0  0
  7  8  1  0  0  0
  8  9  2  0  0  0
  9 10  1  0  0  0
  9 12  1  0  0  0
 10 11  2  0  0  0
 12 13  2  0  0  0
 12 14  2  0  0  0
 12 15  1  0  0  0
 15 16  1  0  0  0
 15 30  1  0  0  0
 16 17  1  0  0  0
 17 18  1  0  0  0
 18 19  1  0  0  0
 18 29  1  0  0  0
 19 20  1  0  0  0
 20 21  2  0  0  0
 20 28  1  0  0  0
 21 22  1  0  0  0
 22 23  2  0  0  0
 22 26  1  0  0  0
 23 24  1  0  0  0
 23 27  1  0  0  0
 24 25  1  0  0  0
 25 26  1  0  0  0
 27 28  2  0  0  0
 29 30  1  0  0  0
 31 32  2  0  0  0
 32 33  1  0  0  0
 33 34  2  0  0  0
M  END
>  <CHROM.0>
-175.13343004,-165.66055963,-169.06074237,-66.30288223,168.34738058,63.25416395
-47.24083518,-162.02710693

>  <CHROM.1>
96.88613052,78.89766346,55.24183887,-9.48297304,-15.13177946,-144.93659106
104.27193787,-20.60341824,19.52010651,-13.13102104,-2.35052615,-0.82893949
2.97778482

>  <Name>
F1441-0518

>  <RI>
2.21986e+07

>  <Rbt.Current_Directory>
/home/adria/Escritorio/rDock_CMTR_LC/2pxcA_model/inputs_sah

>  <Rbt.Executable>
rbdock ($Id: //depot/dev/client3/rdock/2013.1/src/exe/rbdock.cxx#4 $)

>  <Rbt.Library>
libRbt.so (2013.1, Build901 2013/11/27)

>  <Rbt.Parameter_File>
/home/adria/Escritorio/rDock_2013.1_src/data/scripts/dock.prm

>  <Rbt.Receptor>
sah_rdock.prm

>  <SCORE>
-249.309

>  <SCORE.INTER>
-15.3645

>  <SCORE.INTER.CONST>
1

>  <SCORE.INTER.POLAR>
-0.694316

>  <SCORE.INTER.REPUL>
0.00461206

>  <SCORE.INTER.ROT>
7

>  <SCORE.INTER.VDW>
-25.4269

>  <SCORE.INTER.norm>
-0.451898

>  <SCORE.INTRA>
-233.832

>  <SCORE.INTRA.DIHEDRAL>
12.417

>  <SCORE.INTRA.DIHEDRAL.0>
6.6817

>  <SCORE.INTRA.POLAR>
0

>  <SCORE.INTRA.POLAR.0>
0

>  <SCORE.INTRA.REPUL>
0

>  <SCORE.INTRA.REPUL.0>
0

>  <SCORE.INTRA.VDW>
-240.041

>  <SCORE.INTRA.VDW.0>
238.347

>  <SCORE.INTRA.norm>
-6.87742

>  <SCORE.RESTR>
0

>  <SCORE.RESTR.CAVITY>
0

>  <SCORE.RESTR.norm>
0

>  <SCORE.SYSTEM>
-0.111706

>  <SCORE.SYSTEM.CONST>
0

>  <SCORE.SYSTEM.DIHEDRAL>
3.0859

>  <SCORE.SYSTEM.POLAR>
-3.18954

>  <SCORE.SYSTEM.VDW>
9.18977

>  <SCORE.SYSTEM.norm>
-0.00328547

>  <SCORE.heavy>
34

>  <SCORE.norm>
-7.33261

$$$$
F1441-0518
  rDOCK(R)          3D
libRbt.so/2013.1/901 2013/11/27
 34 38  0  0  0  0  0  0  0  0999 V2000
  -18.6962   15.6400  -15.5100 C   0  0  0  0  0  0
  -18.3868   16.8795  -16.1548 O   0  0  0  0  0  0
  -17.2729   16.8992  -16.9526 C   0  0  0  0  0  0
  -16.2150   17.7475  -16.6144 C   0  0  0  0  0  0
  -16.4388   18.7279  -15.6327 O   0  0  0  0  0  0
  -17.7102   19.2672  -15.3646 C   0  0  0  0  0  0
  -18.2060   20.7546  -16.0407 C   0  0  0  0  0  0
  -19.2995   21.9976  -14.8546 C   0  0  0  0  0  0
  -19.8066   21.4257  -13.3449 C   0  0  0  0  0  0
  -19.3794   19.8927  -12.9236 C   0  0  0  0  0  0
  -18.3496   18.8859  -13.8543 C   0  0  0  0  0  0
  -20.9974   22.4405  -12.5810 S   0  0  0  0  0  0
  -20.3886   23.0529  -11.4260 O   0  0  0  0  0  0
  -21.5613   23.2221  -13.6639 O   0  0  0  0  0  0
  -22.1387   21.3006  -12.0789 N   0  0  0  0  0  0
  -22.9408   20.5646  -13.0948 C   0  0  0  0  0  0
  -24.1954   19.8395  -12.4821 C   0  0  0  0  0  0
  -24.0785   19.4430  -11.0654 N   0  0  0  0  0  0
  -24.8408   20.2620  -10.0832 C   0  0  0  0  0  0
  -24.4313   21.7067   -9.7714 C   0  0  0  0  0  0
  -24.5334   22.6421  -10.8041 C   0  0  0  0  0  0
  -24.1377   23.8796  -10.4326 C   0  0  0  0  0  0
  -23.3352   24.2600   -8.9872 C   0  0  0  0  0  0
  -21.9422   25.4219   -9.2315 O   0  0  0  0  0  0
  -21.7738   25.9037  -11.1248 C   0  0  0  0  0  0
  -23.3806   24.7887  -11.8199 O   0  0  0  0  0  0
  -23.3454   23.3352   -7.9903 C   0  0  0  0  0  0
  -23.9734   22.0946   -8.3980 C   0  0  0  0  0  0
  -22.6552   19.2560  -10.7499 C   0  0  0  0  0  0
  -21.8200   20.5413  -10.8434 C   0  0  0  0  0  0
  -15.0323   17.5069  -17.3395 C   0  0  0  0  0  0
  -14.8918   16.6646  -18.4321 C   0  0  0  0  0  0
  -15.9919   15.9859  -18.8526 C   0  0  0  0  0  0
  -17.1616   16.0922  -18.1064 C   0  0  0  0  0  0
  1  2  1  0  0  0
  2  3  1  0  0  0
  3  4  2  0  0  0
  3 34  1  0  0  0
  4  5  1  0  0  0
  4 31  1  0  0  0
  5  6  1  0  0  0
  6  7  2  0  0  0
  6 11  1  0  0  0
  7  8  1  0  0  0
  8  9  2  0  0  0
  9 10  1  0  0  0
  9 12  1  0  0  0
 10 11  2  0  0  0
 12 13  2  0  0  0
 12 14  2  0  0  0
 12 15  1  0  0  0
 15 16  1  0  0  0
 15 30  1  0  0  0
 16 17  1  0  0  0
 17 18  1  0  0  0
 18 19  1  0  0  0
 18 29  1  0  0  0
 19 20  1  0  0  0
 20 21  2  0  0  0
 20 28  1  0  0  0
 21 22  1  0  0  0
 22 23  2  0  0  0
 22 26  1  0  0  0
 23 24  1  0  0  0
 23 27  1  0  0  0
 24 25  1  0  0  0
 25 26  1  0  0  0
 27 28  2  0  0  0
 29 30  1  0  0  0
 31 32  2  0  0  0
 32 33  1  0  0  0
 33 34  2  0  0  0
M  END
>  <CHROM.0>
-60.21351090,67.73102474,73.53891403,66.16683614,-30.18659178,-59.61523664
-36.27704947,-161.22509905

>  <CHROM.1>
-117.64894860,-26.42146587,-97.52320622,-111.58503403,-68.10899054,-69.69652091
65.14648435,-20.61251774,20.65109902,-13.09085472,0.73097516,-0.64540984
-2.87083720

>  <Name>
F1441-0518

>  <RI>
2.21986e+07

>  <Rbt.Current_Directory>
/home/adria/Escritorio/rDock_CMTR_LC/2pxcA_model/inputs_sah

>  <Rbt.Executable>
rbdock ($Id: //depot/dev/client3/rdock/2013.1/src/exe/rbdock.cxx#4 $)

>  <Rbt.Library>
libRbt.so (2013.1, Build901 2013/11/27)

>  <Rbt.Parameter_File>
/home/adria/Escritorio/rDock_2013.1_src/data/scripts/dock.prm

>  <Rbt.Receptor>
sah_rdock.prm

>  <SCORE>
-260.79

>  <SCORE.INTER>
-13.5067

>  <SCORE.INTER.CONST>
1

>  <SCORE.INTER.POLAR>
0

>  <SCORE.INTER.REPUL>
0

>  <SCORE.INTER.ROT>
7

>  <SCORE.INTER.VDW>
-25.9067

>  <SCORE.INTER.norm>
-0.397257

>  <SCORE.INTRA>
-239.881

>  <SCORE.INTRA.DIHEDRAL>
5.16379

>  <SCORE.INTRA.DIHEDRAL.0>
6.6817

>  <SCORE.INTRA.POLAR>
0

>  <SCORE.INTRA.POLAR.0>
0

>  <SCORE.INTRA.REPUL>
0

>  <SCORE.INTRA.REPUL.0>
0

>  <SCORE.INTRA.VDW>
-242.463

>  <SCORE.INTRA.VDW.0>
238.347

>  <SCORE.INTRA.norm>
-7.05531

>  <SCORE.RESTR>
0

>  <SCORE.RESTR.CAVITY>
0

>  <SCORE.RESTR.norm>
0

>  <SCORE.SYSTEM>
-7.40258

>  <SCORE.SYSTEM.CONST>
0

>  <SCORE.SYSTEM.DIHEDRAL>
6.19241

>  <SCORE.SYSTEM.POLAR>
-3.78817

>  <SCORE.SYSTEM.VDW>
2.38099

>  <SCORE.SYSTEM.norm>
-0.217723

>  <SCORE.heavy>
34

>  <SCORE.norm>
-7.67029

$$$$
F1441-0518
  rDOCK(R)          3D
libRbt.so/2013.1/901 2013/11/27
 34 38  0  0  0  0  0  0  0  0999 V2000
  -27.2339   21.6366  -11.4315 C   0  0  0  0  0  0
  -26.9443   22.9454  -10.9304 O   0  0  0  0  0  0
  -25.8463   23.0671  -10.1197 C   0  0  0  0  0  0
  -24.6294   23.4574  -10.6852 C   0  0  0  0  0  0
  -24.5173   23.4534  -12.0860 O   0  0  0  0  0  0
  -23.5916   22.6514  -12.7781 C   0  0  0  0  0  0
  -23.8338   20.9714  -12.9630 C   0  0  0  0  0  0
  -22.1935   19.7729  -12.8173 C   0  0  0  0  0  0
  -20.6724   20.5053  -12.7020 C   0  0  0  0  0  0
  -20.6115   22.1503  -12.7109 C   0  0  0  0  0  0
  -21.9911   23.1687  -12.6994 C   0  0  0  0  0  0
  -19.3483   19.3959  -12.9195 S   0  0  0  0  0  0
  -18.1860   19.9545  -12.2741 O   0  0  0  0  0  0
  -19.8902   18.1024  -12.5521 O   0  0  0  0  0  0
  -19.1405   19.4444  -14.5953 N   0  0  0  0  0  0
  -20.2951   19.1539  -15.4894 C   0  0  0  0  0  0
  -19.8667   18.8670  -16.9758 C   0  0  0  0  0  0
  -18.6117   19.5064  -17.4162 N   0  0  0  0  0  0
  -17.4263   18.6158  -17.5513 C   0  0  0  0  0  0
  -17.5868   17.0927  -17.6336 C   0  0  0  0  0  0
  -17.0774   16.4518  -18.7657 C   0  0  0  0  0  0
  -17.2800   15.1158  -18.7483 C   0  0  0  0  0  0
  -18.2756   14.2890  -17.6515 C   0  0  0  0  0  0
  -19.3155   13.0152  -18.4553 O   0  0  0  0  0  0
  -18.9751   12.9689  -20.3859 C   0  0  0  0  0  0
  -17.5217   14.4501  -20.4285 O   0  0  0  0  0  0
  -18.6678   14.9455  -16.5270 C   0  0  0  0  0  0
  -18.2362   16.3288  -16.5196 C   0  0  0  0  0  0
  -18.3950   20.7140  -16.6068 C   0  0  0  0  0  0
  -18.1624   20.4333  -15.1149 C   0  0  0  0  0  0
  -23.6414   23.7983   -9.7417 C   0  0  0  0  0  0
  -23.7129   23.6131   -8.3693 C   0  0  0  0  0  0
  -24.8470   23.0591   -7.8645 C   0  0  0  0  0  0
  -25.9051   22.8079   -8.7325 C   0  0  0  0  0  0
  1  2  1  0  0  0
  2  3  1  0  0  0
  3  4  2  0  0  0
  3 34  1  0  0  0
  4  5  1  0  0  0
  4 31  1  0  0  0
  5  6  1  0  0  0
  6  7  2  0  0  0
  6 11  1  0  0  0
  7  8  1  0  0  0
  8  9  2  0  0  0
  9 10  1  0  0  0
  9 12  1  0  0  0
 10 11  2  0  0  0
 12 13  2  0  0  0
 12 14  2  0  0  0
 12 15  1  0  0  0
 15 16  1  0  0  0
 15 30  1  0  0  0
 16 17  1  0  0  0
 17 18  1  0  0  0
 18 19  1  0  0  0
 18 29  1  0  0  0
 19 20  1  0  0  0
 20 21  2  0  0  0
 20 28  1  0  0  0
 21 22  1  0  0  0
 22 23  2  0  0  0
 22 26  1  0  0  0
 23 24  1  0  0  0
 23 27  1  0  0  0
 24 25  1  0  0  0
 25 26  1  0  0  0
 27 28  2  0  0  0
 29 30  1  0  0  0
 31 32  2  0  0  0
 32 33  1  0  0  0
 33 34  2  0  0  0
M  END
>  <CHROM.0>
-62.48714888,-166.93443530,-160.81785330,-62.63551689,-29.43612644,174.00639910
84.03480838,-49.19148528

>  <CHROM.1>
95.30427664,-118.76436807,75.09875913,-156.41988047,-54.95973649,17.27614880
121.78920853,-20.88338255,19.53929953,-14.20010550,2.14058324,0.21470364
0.69083014

>  <Name>
F1441-0518

>  <RI>
2.21986e+07

>  <Rbt.Current_Directory>
/home/adria/Escritorio/rDock_CMTR_LC/2pxcA_model/inputs_sah

>  <Rbt.Executable>
rbdock ($Id: //depot/dev/client3/rdock/2013.1/src/exe/rbdock.cxx#4 $)

>  <Rbt.Library>
libRbt.so (2013.1, Build901 2013/11/27)

>  <Rbt.Parameter_File>
/home/adria/Escritorio/rDock_2013.1_src/data/scripts/dock.prm

>  <Rbt.Receptor>
sah_rdock.prm

>  <SCORE>
-252.964

>  <SCORE.INTER>
-13.2546

>  <SCORE.INTER.CONST>
1

>  <SCORE.INTER.POLAR>
-1.26423

>  <SCORE.INTER.REPUL>
0.239361

>  <SCORE.INTER.ROT>
7

>  <SCORE.INTER.VDW>
-22.553

>  <SCORE.INTER.norm>
-0.38984

>  <SCORE.INTRA>
-236.052

>  <SCORE.INTRA.DIHEDRAL>
10.1091

>  <SCORE.INTRA.DIHEDRAL.0>
6.6817

>  <SCORE.INTRA.POLAR>
0

>  <SCORE.INTRA.POLAR.0>
0

>  <SCORE.INTRA.REPUL>
0

>  <SCORE.INTRA.REPUL.0>
0

>  <SCORE.INTRA.VDW>
-241.106

>  <SCORE.INTRA.VDW.0>
238.347

>  <SCORE.INTRA.norm>
-6.9427

>  <SCORE.RESTR>
0

>  <SCORE.RESTR.CAVITY>
0

>  <SCORE.RESTR.norm>
0

>  <SCORE.SYSTEM>
-3.65789

>  <SCORE.SYSTEM.CONST>
0

>  <SCORE.SYSTEM.DIHEDRAL>
9.49738

>  <SCORE.SYSTEM.POLAR>
-3.31336

>  <SCORE.SYSTEM.REPUL>
0.0138279

>  <SCORE.SYSTEM.VDW>
2.7897

>  <SCORE.SYSTEM.norm>
-0.107585

>  <SCORE.heavy>
34

>  <SCORE.norm>
-7.44012

$$$$
F1441-0518
  rDOCK(R)          3D
libRbt.so/2013.1/901 2013/11/27
 34 38  0  0  0  0  0  0  0  0999 V2000
  -23.8120   24.5319  -13.5153 C   0  0  0  0  0  0
  -23.2594   23.9090  -12.3515 O   0  0  0  0  0  0
  -22.7186   24.7391  -11.4048 C   0  0  0  0  0  0
  -23.4029   24.9264  -10.2008 C   0  0  0  0  0  0
  -24.7298   24.4718  -10.1143 O   0  0  0  0  0  0
  -25.0668   23.1119   -9.9869 C   0  0  0  0  0  0
  -24.0769   22.0283   -9.1144 C   0  0  0  0  0  0
  -23.8539   20.1525   -9.8757 C   0  0  0  0  0  0
  -24.7896   19.7139  -11.2157 C   0  0  0  0  0  0
  -25.8255   20.8375  -11.8275 C   0  0  0  0  0  0
  -25.9260   22.4593  -11.2797 C   0  0  0  0  0  0
  -24.7563   18.0072  -11.5584 S   0  0  0  0  0  0
  -24.1029   17.3427  -10.4580 O   0  0  0  0  0  0
  -26.1122   17.6878  -11.9599 O   0  0  0  0  0  0
  -23.7579   17.9569  -12.9203 N   0  0  0  0  0  0
  -22.7286   16.8876  -13.0400 C   0  0  0  0  0  0
  -21.6507   17.1907  -14.1451 C   0  0  0  0  0  0
  -22.1001   18.0438  -15.2623 N   0  0  0  0  0  0
  -21.6034   19.4474  -15.2655 C   0  0  0  0  0  0
  -20.2274   19.7981  -15.8451 C   0  0  0  0  0  0
  -19.7610   19.0234  -16.9102 C   0  0  0  0  0  0
  -18.5373   19.4035  -17.3393 C   0  0  0  0  0  0
  -17.5141   20.4966  -16.5417 C   0  0  0  0  0  0
  -15.7723   19.9361  -16.4950 O   0  0  0  0  0  0
  -15.5837   18.2048  -17.3960 C   0  0  0  0  0  0
  -17.5704   17.9861  -17.9559 O   0  0  0  0  0  0
  -18.0527   21.2807  -15.5700 C   0  0  0  0  0  0
  -19.4385   20.9516  -15.3035 C   0  0  0  0  0  0
  -23.5557   17.8974  -15.4041 C   0  0  0  0  0  0
  -24.3563   18.4143  -14.1998 C   0  0  0  0  0  0
  -22.6492   25.5822   -9.2086 C   0  0  0  0  0  0
  -21.4138   26.1888   -9.3777 C   0  0  0  0  0  0
  -20.8528   26.1463  -10.6152 C   0  0  0  0  0  0
  -21.4941   25.4130  -11.6087 C   0  0  0  0  0  0
  1  2  1  0  0  0
  2  3  1  0  0  0
  3  4  2  0  0  0
  3 34  1  0  0  0
  4  5  1  0  0  0
  4 31  1  0  0  0
  5  6  1  0  0  0
  6  7  2  0  0  0
  6 11  1  0  0  0
  7  8  1  0  0  0
  8  9  2  0  0  0
  9 10  1  0  0  0
  9 12  1  0  0  0
 10 11  2  0  0  0
 12 13  2  0  0  0
 12 14  2  0  0  0
 12 15  1  0  0  0
 15 16  1  0  0  0
 15 30  1  0  0  0
 16 17  1  0  0  0
 17 18  1  0  0  0
 18 19  1  0  0  0
 18 29  1  0  0  0
 19 20  1  0  0  0
 20 21  2  0  0  0
 20 28  1  0  0  0
 21 22  1  0  0  0
 22 23  2  0  0  0
 22 26  1  0  0  0
 23 24  1  0  0  0
 23 27  1  0  0  0
 24 25  1  0  0  0
 25 26  1  0  0  0
 27 28  2  0  0  0
 29 30  1  0  0  0
 31 32  2  0  0  0
 32 33  1  0  0  0
 33 34  2  0  0  0
M  END
>  <CHROM.0>
-65.68216376,-72.10607749,110.82239387,-143.75222282,168.54721670,-178.19031965
83.80319060,-161.88697415

>  <CHROM.1>
107.53788736,75.01230693,33.90128179,9.64076154,138.15816424,83.68981087
31.64516876,-22.19805955,20.70384102,-13.06683591,-2.37085906,-0.59577916
-2.71809874

>  <Name>
F1441-0518

>  <RI>
2.21986e+07

>  <Rbt.Current_Directory>
/home/adria/Escritorio/rDock_CMTR_LC/2pxcA_model/inputs_sah

>  <Rbt.Executable>
rbdock ($Id: //depot/dev/client3/rdock/2013.1/src/exe/rbdock.cxx#4 $)

>  <Rbt.Library>
libRbt.so (2013.1, Build901 2013/11/27)

>  <Rbt.Parameter_File>
/home/adria/Escritorio/rDock_2013.1_src/data/scripts/dock.prm

>  <Rbt.Receptor>
sah_rdock.prm

>  <SCORE>
-246.26

>  <SCORE.INTER>
-10.481

>  <SCORE.INTER.CONST>
1

>  <SCORE.INTER.POLAR>
-0.000228419

>  <SCORE.INTER.REPUL>
0.02582

>  <SCORE.INTER.ROT>
7

>  <SCORE.INTER.VDW>
-23.0093

>  <SCORE.INTER.norm>
-0.308265

>  <SCORE.INTRA>
-236.798

>  <SCORE.INTRA.DIHEDRAL>
9.41156

>  <SCORE.INTRA.DIHEDRAL.0>
6.6817

>  <SCORE.INTRA.POLAR>
0

>  <SCORE.INTRA.POLAR.0>
0

>  <SCORE.INTRA.REPUL>
0

>  <SCORE.INTRA.REPUL.0>
0

>  <SCORE.INTRA.VDW>
-241.504

>  <SCORE.INTRA.VDW.0>
238.347

>  <SCORE.INTRA.norm>
-6.96466

>  <SCORE.RESTR>
0

>  <SCORE.RESTR.CAVITY>
0

>  <SCORE.RESTR.norm>
0

>  <SCORE.SYSTEM>
1.01944

>  <SCORE.SYSTEM.CONST>
0

>  <SCORE.SYSTEM.DIHEDRAL>
11.337

>  <SCORE.SYSTEM.POLAR>
-4.51172

>  <SCORE.SYSTEM.REPUL>
0.0369002

>  <SCORE.SYSTEM.VDW>
10.5063

>  <SCORE.SYSTEM.norm>
0.0299835

>  <SCORE.heavy>
34

>  <SCORE.norm>
-7.24294

$$$$
F1441-0518
  rDOCK(R)          3D
libRbt.so/2013.1/901 2013/11/27
 34 38  0  0  0  0  0  0  0  0999 V2000
  -24.5575   24.2782   -9.9428 C   0  0  0  0  0  0
  -23.3410   24.2228   -9.1911 O   0  0  0  0  0  0
  -22.1764   24.1297   -9.9073 C   0  0  0  0  0  0
  -21.9640   23.0037  -10.7073 C   0  0  0  0  0  0
  -22.8214   21.9024  -10.5436 O   0  0  0  0  0  0
  -22.7325   20.7390  -11.3296 C   0  0  0  0  0  0
  -22.0440   19.3019  -10.7166 C   0  0  0  0  0  0
  -20.8928   18.2048  -11.9890 C   0  0  0  0  0  0
  -20.8253   18.6711  -13.6142 C   0  0  0  0  0  0
  -21.6959   19.9921  -14.0689 C   0  0  0  0  0  0
  -22.5610   20.9999  -12.9843 C   0  0  0  0  0  0
  -20.0920   17.4789  -14.6498 S   0  0  0  0  0  0
  -19.2935   16.6031  -13.8282 O   0  0  0  0  0  0
  -21.1807   16.9886  -15.4719 O   0  0  0  0  0  0
  -19.0784   18.4380  -15.6019 N   0  0  0  0  0  0
  -19.6281   19.1221  -16.8048 C   0  0  0  0  0  0
  -18.5105   19.6502  -17.7781 C   0  0  0  0  0  0
  -17.2167   19.9805  -17.1497 N   0  0  0  0  0  0
  -16.1029   19.0203  -17.3824 C   0  0  0  0  0  0
  -16.3594   17.5090  -17.4341 C   0  0  0  0  0  0
  -16.3406   16.8953  -18.6890 C   0  0  0  0  0  0
  -16.5897   15.5685  -18.6282 C   0  0  0  0  0  0
  -17.1467   14.7369  -17.2585 C   0  0  0  0  0  0
  -18.4740   13.5375  -17.6455 O   0  0  0  0  0  0
  -18.8785   13.5562  -19.5641 C   0  0  0  0  0  0
  -17.4719   14.9809  -20.1117 O   0  0  0  0  0  0
  -17.0589   15.3620  -16.0541 C   0  0  0  0  0  0
  -16.5860   16.7263  -16.1762 C   0  0  0  0  0  0
  -17.4574   20.3265  -15.7417 C   0  0  0  0  0  0
  -17.9927   19.1627  -14.8945 C   0  0  0  0  0  0
  -20.8721   23.1236  -11.5882 C   0  0  0  0  0  0
  -19.9284   24.1396  -11.5984 C   0  0  0  0  0  0
  -20.0607   25.1343  -10.6813 C   0  0  0  0  0  0
  -21.1838   25.1334   -9.8599 C   0  0  0  0  0  0
  1  2  1  0  0  0
  2  3  1  0  0  0
  3  4  2  0  0  0
  3 34  1  0  0  0
  4  5  1  0  0  0
  4 31  1  0  0  0
  5  6  1  0  0  0
  6  7  2  0  0  0
  6 11  1  0  0  0
  7  8  1  0  0  0
  8  9  2  0  0  0
  9 10  1  0  0  0
  9 12  1  0  0  0
 10 11  2  0  0  0
 12 13  2  0  0  0
 12 14  2  0  0  0
 12 15  1  0  0  0
 15 16  1  0  0  0
 15 30  1  0  0  0
 16 17  1  0  0  0
 17 18  1  0  0  0
 18 19  1  0  0  0
 18 29  1  0  0  0
 19 20  1  0  0  0
 20 21  2  0  0  0
 20 28  1  0  0  0
 21 22  1  0  0  0
 22 23  2  0  0  0
 22 26  1  0  0  0
 23 24  1  0  0  0
 23 27  1  0  0  0
 24 25  1  0  0  0
 25 26  1  0  0  0
 27 28  2  0  0  0
 29 30  1  0  0  0
 31 32  2  0  0  0
 32 33  1  0  0  0
 33 34  2  0  0  0
M  END
>  <CHROM.0>
-60.31578093,63.82304704,-47.06961688,64.07189644,-28.91607174,163.43671767
-158.30980250,-162.92980291

>  <CHROM.1>
-62.74319784,177.46311682,103.88246173,-20.50581005,-84.05876369,-37.23281453
104.94640135,-19.71811154,19.25831524,-14.43834232,2.12749020,0.69375117
0.40306980

>  <Name>
F1441-0518

>  <RI>
2.21986e+07

>  <Rbt.Current_Directory>
/home/adria/Escritorio/rDock_CMTR_LC/2pxcA_model/inputs_sah

>  <Rbt.Executable>
rbdock ($Id: //depot/dev/client3/rdock/2013.1/src/exe/rbdock.cxx#4 $)

>  <Rbt.Library>
libRbt.so (2013.1, Build901 2013/11/27)

>  <Rbt.Parameter_File>
/home/adria/Escritorio/rDock_2013.1_src/data/scripts/dock.prm

>  <Rbt.Receptor>
sah_rdock.prm

>  <SCORE>
-266.622

>  <SCORE.INTER>
-20.0974

>  <SCORE.INTER.CONST>
1

>  <SCORE.INTER.POLAR>
-2.10503

>  <SCORE.INTER.REPUL>
0

>  <SCORE.INTER.ROT>
7

>  <SCORE.INTER.VDW>
-25.3403

>  <SCORE.INTER.norm>
-0.5911

>  <SCORE.INTRA>
-239.653

>  <SCORE.INTRA.DIHEDRAL>
3.85939

>  <SCORE.INTRA.DIHEDRAL.0>
6.6817

>  <SCORE.INTRA.POLAR>
0

>  <SCORE.INTRA.POLAR.0>
0

>  <SCORE.INTRA.REPUL>
0

>  <SCORE.INTRA.REPUL.0>
0

>  <SCORE.INTRA.VDW>
-241.583

>  <SCORE.INTRA.VDW.0>
238.347

>  <SCORE.INTRA.norm>
-7.04862

>  <SCORE.RESTR>
0

>  <SCORE.RESTR.CAVITY>
0

>  <SCORE.RESTR.norm>
0

>  <SCORE.SYSTEM>
-6.87151

>  <SCORE.SYSTEM.CONST>
0

>  <SCORE.SYSTEM.DIHEDRAL>
6.44494

>  <SCORE.SYSTEM.POLAR>
-3.72591

>  <SCORE.SYSTEM.VDW>
2.5741

>  <SCORE.SYSTEM.norm>
-0.202103

>  <SCORE.heavy>
34

>  <SCORE.norm>
-7.84182

$$$$
F1441-0518
  rDOCK(R)          3D
libRbt.so/2013.1/901 2013/11/27
 34 38  0  0  0  0  0  0  0  0999 V2000
  -15.6516   15.9655  -18.4355 C   0  0  0  0  0  0
  -15.9034   16.5711  -17.1636 O   0  0  0  0  0  0
  -15.6162   17.9060  -17.0478 C   0  0  0  0  0  0
  -16.4812   18.7215  -16.3130 C   0  0  0  0  0  0
  -17.7344   18.2004  -15.9484 O   0  0  0  0  0  0
  -18.3352   18.4520  -14.7015 C   0  0  0  0  0  0
  -19.6077   17.4767  -14.1144 C   0  0  0  0  0  0
  -21.1199   18.4158  -13.1249 C   0  0  0  0  0  0
  -20.9527   20.0646  -12.7828 C   0  0  0  0  0  0
  -19.5724   20.8133  -13.2767 C   0  0  0  0  0  0
  -18.3538   20.0668  -14.2245 C   0  0  0  0  0  0
  -22.1382   20.6650  -11.6579 S   0  0  0  0  0  0
  -23.4461   20.4281  -12.2173 O   0  0  0  0  0  0
  -21.7352   20.1209  -10.3760 O   0  0  0  0  0  0
  -21.8095   22.3219  -11.6750 N   0  0  0  0  0  0
  -20.4681   22.8112  -11.2524 C   0  0  0  0  0  0
  -20.4394   24.3571  -10.9617 C   0  0  0  0  0  0
  -21.4272   25.1670  -11.7008 N   0  0  0  0  0  0
  -22.5926   25.6655  -10.9198 C   0  0  0  0  0  0
  -23.7190   24.7183  -10.4884 C   0  0  0  0  0  0
  -23.6317   24.1525   -9.2139 C   0  0  0  0  0  0
  -24.6632   23.3252   -8.9352 C   0  0  0  0  0  0
  -25.8095   22.7741  -10.0577 C   0  0  0  0  0  0
  -26.1711   20.9881   -9.8867 O   0  0  0  0  0  0
  -25.1137   20.2097   -8.4303 C   0  0  0  0  0  0
  -24.1508   21.9539   -7.8482 O   0  0  0  0  0  0
  -25.8984   23.4240  -11.2489 C   0  0  0  0  0  0
  -24.8807   24.4451  -11.3951 C   0  0  0  0  0  0
  -21.7661   24.4653  -12.9470 C   0  0  0  0  0  0
  -22.4768   23.1206  -12.7340 C   0  0  0  0  0  0
  -15.9683   20.0044  -16.0419 C   0  0  0  0  0  0
  -14.8135   20.5598  -16.5720 C   0  0  0  0  0  0
  -14.0843   19.8008  -17.4322 C   0  0  0  0  0  0
  -14.4764   18.4836  -17.6496 C   0  0  0  0  0  0
  1  2  1  0  0  0
  2  3  1  0  0  0
  3  4  2  0  0  0
  3 34  1  0  0  0
  4  5  1  0  0  0
  4 31  1  0  0  0
  5  6  1  0  0  0
  6  7  2  0  0  0
  6 11  1  0  0  0
  7  8  1  0  0  0
  8  9  2  0  0  0
  9 10  1  0  0  0
  9 12  1  0  0  0
 10 11  2  0  0  0
 12 13  2  0  0  0
 12 14  2  0  0  0
 12 15  1  0  0  0
 15 16  1  0  0  0
 15 30  1  0  0  0
 16 17  1  0  0  0
 17 18  1  0  0  0
 18 19  1  0  0  0
 18 29  1  0  0  0
 19 20  1  0  0  0
 20 21  2  0  0  0
 20 28  1  0  0  0
 21 22  1  0  0  0
 22 23  2  0  0  0
 22 26  1  0  0  0
 23 24  1  0  0  0
 23 27  1  0  0  0
 24 25  1  0  0  0
 25 26  1  0  0  0
 27 28  2  0  0  0
 29 30  1  0  0  0
 31 32  2  0  0  0
 32 33  1  0  0  0
 33 34  2  0  0  0
M  END
>  <CHROM.0>
-61.56328002,-167.51141612,136.54820642,-61.66763945,168.43295123,64.01416217
83.92658557,-161.03566900

>  <CHROM.1>
140.76973063,141.37788190,-162.27186514,-58.76115263,-60.82004464,-73.51623952
94.25465688,-20.71128936,21.03248545,-12.82813468,0.51473023,-0.62096278
-2.99189707

>  <Name>
F1441-0518

>  <RI>
2.21986e+07

>  <Rbt.Current_Directory>
/home/adria/Escritorio/rDock_CMTR_LC/2pxcA_model/inputs_sah

>  <Rbt.Executable>
rbdock ($Id: //depot/dev/client3/rdock/2013.1/src/exe/rbdock.cxx#4 $)

>  <Rbt.Library>
libRbt.so (2013.1, Build901 2013/11/27)

>  <Rbt.Parameter_File>
/home/adria/Escritorio/rDock_2013.1_src/data/scripts/dock.prm

>  <Rbt.Receptor>
sah_rdock.prm

>  <SCORE>
-258.244

>  <SCORE.INTER>
-18.6523

>  <SCORE.INTER.CONST>
1

>  <SCORE.INTER.POLAR>
-0.841175

>  <SCORE.INTER.REPUL>
0.0935781

>  <SCORE.INTER.ROT>
7

>  <SCORE.INTER.VDW>
-28.6602

>  <SCORE.INTER.norm>
-0.548597

>  <SCORE.INTRA>
-239.558

>  <SCORE.INTRA.DIHEDRAL>
0.982662

>  <SCORE.INTRA.DIHEDRAL.0>
6.6817

>  <SCORE.INTRA.POLAR>
0

>  <SCORE.INTRA.POLAR.0>
0

>  <SCORE.INTRA.REPUL>
0

>  <SCORE.INTRA.REPUL.0>
0

>  <SCORE.INTRA.VDW>
-240.049

>  <SCORE.INTRA.VDW.0>
238.347

>  <SCORE.INTRA.norm>
-7.04582

>  <SCORE.RESTR>
0

>  <SCORE.RESTR.CAVITY>
0

>  <SCORE.RESTR.norm>
0

>  <SCORE.SYSTEM>
-0.0341371

>  <SCORE.SYSTEM.CONST>
0

>  <SCORE.SYSTEM.DIHEDRAL>
6.15836

>  <SCORE.SYSTEM.POLAR>
-3.81108

>  <SCORE.SYSTEM.VDW>
9.84436

>  <SCORE.SYSTEM.norm>
-0.00100403

>  <SCORE.heavy>
34

>  <SCORE.norm>
-7.59542

$$$$
F1441-0518
  rDOCK(R)          3D
libRbt.so/2013.1/901 2013/11/27
 34 38  0  0  0  0  0  0  0  0999 V2000
  -24.8229   24.0762  -10.4071 C   0  0  0  0  0  0
  -23.7478   24.2342   -9.4758 O   0  0  0  0  0  0
  -22.4768   24.1766   -9.9846 C   0  0  0  0  0  0
  -22.0680   23.0180  -10.6507 C   0  0  0  0  0  0
  -22.8741   21.8719  -10.5437 O   0  0  0  0  0  0
  -22.7641   20.7738  -11.4161 C   0  0  0  0  0  0
  -22.3169   19.2273  -10.8473 C   0  0  0  0  0  0
  -21.0780   18.1236  -12.0284 C   0  0  0  0  0  0
  -20.7055   18.7116  -13.5707 C   0  0  0  0  0  0
  -21.3678   20.1492  -14.0231 C   0  0  0  0  0  0
  -22.3031   21.1498  -12.9914 C   0  0  0  0  0  0
  -19.9243   17.5379  -14.5923 S   0  0  0  0  0  0
  -19.0996   16.6981  -13.7592 O   0  0  0  0  0  0
  -20.9902   17.0022  -15.4160 O   0  0  0  0  0  0
  -18.9404   18.5249  -15.5472 N   0  0  0  0  0  0
  -19.3778   18.8911  -16.9225 C   0  0  0  0  0  0
  -18.2142   19.4789  -17.8034 C   0  0  0  0  0  0
  -17.1307   20.1565  -17.0652 N   0  0  0  0  0  0
  -15.8432   19.4174  -16.9522 C   0  0  0  0  0  0
  -15.8035   17.8851  -17.0056 C   0  0  0  0  0  0
  -15.0474   17.2956  -18.0218 C   0  0  0  0  0  0
  -15.0875   15.9453  -17.9899 C   0  0  0  0  0  0
  -16.1373   15.0176  -17.0333 C   0  0  0  0  0  0
  -16.8750   13.6120  -17.9446 O   0  0  0  0  0  0
  -16.2295   13.5792  -19.7959 C   0  0  0  0  0  0
  -14.9772   15.2292  -19.6631 O   0  0  0  0  0  0
  -16.7793   15.6370  -16.0071 C   0  0  0  0  0  0
  -16.5245   17.0632  -15.9804 C   0  0  0  0  0  0
  -17.6750   20.6582  -15.7954 C   0  0  0  0  0  0
  -18.1412   19.5540  -14.8352 C   0  0  0  0  0  0
  -20.8536   23.1564  -11.3497 C   0  0  0  0  0  0
  -19.9830   24.2338  -11.2851 C   0  0  0  0  0  0
  -20.3247   25.2752  -10.4809 C   0  0  0  0  0  0
  -21.5669   25.2491   -9.8546 C   0  0  0  0  0  0
  1  2  1  0  0  0
  2  3  1  0  0  0
  3  4  2  0  0  0
  3 34  1  0  0  0
  4  5  1  0  0  0
  4 31  1  0  0  0
  5  6  1  0  0  0
  6  7  2  0  0  0
  6 11  1  0  0  0
  7  8  1  0  0  0
  8  9  2  0  0  0
  9 10  1  0  0  0
  9 12  1  0  0  0
 10 11  2  0  0  0
 12 13  2  0  0  0
 12 14  2  0  0  0
 12 15  1  0  0  0
 15 16  1  0  0  0
 15 30  1  0  0  0
 16 17  1  0  0  0
 17 18  1  0  0  0
 18 19  1  0  0  0
 18 29  1  0  0  0
 19 20  1  0  0  0
 20 21  2  0  0  0
 20 28  1  0  0  0
 21 22  1  0  0  0
 22 23  2  0  0  0
 22 26  1  0  0  0
 23 24  1  0  0  0
 23 27  1  0  0  0
 24 25  1  0  0  0
 25 26  1  0  0  0
 27 28  2  0  0  0
 29 30  1  0  0  0
 31 32  2  0  0  0
 32 33  1  0  0  0
 33 34  2  0  0  0
M  END
>  <CHROM.0>
-178.39018532,-72.67624416,-168.34429944,60.71030787,34.90362002,-167.66942339
83.30918054,-166.00990010

>  <CHROM.1>
-59.25530590,163.37560548,117.45997864,-33.48350044,-99.85971663,-26.52462079
120.38749773,-19.38810149,19.36964053,-14.37149768,2.26400331,0.65107645
0.31379354

>  <Name>
F1441-0518

>  <RI>
2.21986e+07

>  <Rbt.Current_Directory>
/home/adria/Escritorio/rDock_CMTR_LC/2pxcA_model/inputs_sah

>  <Rbt.Executable>
rbdock ($Id: //depot/dev/client3/rdock/2013.1/src/exe/rbdock.cxx#4 $)

>  <Rbt.Library>
libRbt.so (2013.1, Build901 2013/11/27)

>  <Rbt.Parameter_File>
/home/adria/Escritorio/rDock_2013.1_src/data/scripts/dock.prm

>  <Rbt.Receptor>
sah_rdock.prm

>  <SCORE>
-255.37

>  <SCORE.INTER>
-22.1159

>  <SCORE.INTER.CONST>
1

>  <SCORE.INTER.POLAR>
-2.23451

>  <SCORE.INTER.REPUL>
0

>  <SCORE.INTER.ROT>
7

>  <SCORE.INTER.VDW>
-26.9185

>  <SCORE.INTER.norm>
-0.650467

>  <SCORE.INTRA>
-238.458

>  <SCORE.INTRA.DIHEDRAL>
4.15514

>  <SCORE.INTRA.DIHEDRAL.0>
6.6817

>  <SCORE.INTRA.POLAR>
0

>  <SCORE.INTRA.POLAR.0>
0

>  <SCORE.INTRA.REPUL>
0

>  <SCORE.INTRA.REPUL.0>
0

>  <SCORE.INTRA.VDW>
-240.536

>  <SCORE.INTRA.VDW.0>
238.347

>  <SCORE.INTRA.norm>
-7.01348

>  <SCORE.RESTR>
0

>  <SCORE.RESTR.CAVITY>
0

>  <SCORE.RESTR.norm>
0

>  <SCORE.SYSTEM>
5.20443

>  <SCORE.SYSTEM.CONST>
0

>  <SCORE.SYSTEM.DIHEDRAL>
5.61583

>  <SCORE.SYSTEM.POLAR>
-3.58761

>  <SCORE.SYSTEM.REPUL>
0.0379522

>  <SCORE.SYSTEM.VDW>
14.4046

>  <SCORE.SYSTEM.norm>
0.153072

>  <SCORE.heavy>
34

>  <SCORE.norm>
-7.51087

$$$$
F1441-0518
  rDOCK(R)          3D
libRbt.so/2013.1/901 2013/11/27
 34 38  0  0  0  0  0  0  0  0999 V2000
  -14.3287   18.1967  -17.6573 C   0  0  0  0  0  0
  -14.3928   17.3451  -18.8055 O   0  0  0  0  0  0
  -15.1274   16.1951  -18.6809 C   0  0  0  0  0  0
  -16.5181   16.2660  -18.7993 C   0  0  0  0  0  0
  -17.1217   17.5349  -18.7779 O   0  0  0  0  0  0
  -18.1713   17.8691  -17.9028 C   0  0  0  0  0  0
  -18.5558   19.4960  -17.5555 C   0  0  0  0  0  0
  -19.0830   19.9391  -15.6388 C   0  0  0  0  0  0
  -19.2848   18.6625  -14.5466 C   0  0  0  0  0  0
  -19.0377   17.1327  -15.1021 C   0  0  0  0  0  0
  -18.4659   16.7559  -16.6743 C   0  0  0  0  0  0
  -20.0504   19.1367  -13.0565 S   0  0  0  0  0  0
  -19.7301   18.1497  -12.0551 O   0  0  0  0  0  0
  -19.7097   20.5370  -12.8992 O   0  0  0  0  0  0
  -21.6852   19.0156  -13.4648 N   0  0  0  0  0  0
  -22.0892   19.0247  -14.8979 C   0  0  0  0  0  0
  -23.6269   19.2862  -15.1031 C   0  0  0  0  0  0
  -24.5029   18.8643  -13.9929 N   0  0  0  0  0  0
  -25.0594   19.9495  -13.1389 C   0  0  0  0  0  0
  -24.3612   21.3112  -13.0357 C   0  0  0  0  0  0
  -23.1032   21.3455  -12.4289 C   0  0  0  0  0  0
  -22.5798   22.5902  -12.3757 C   0  0  0  0  0  0
  -23.4180   24.0224  -12.7278 C   0  0  0  0  0  0
  -23.0858   25.3563  -11.5193 O   0  0  0  0  0  0
  -21.8348   24.7388  -10.1414 C   0  0  0  0  0  0
  -21.5496   22.8238  -10.8897 O   0  0  0  0  0  0
  -24.5985   23.9223  -13.3952 C   0  0  0  0  0  0
  -24.9994   22.5448  -13.5989 C   0  0  0  0  0  0
  -23.8382   17.7755  -13.2629 C   0  0  0  0  0  0
  -22.5351   18.1941  -12.5662 C   0  0  0  0  0  0
  -17.1490   15.0123  -18.9120 C   0  0  0  0  0  0
  -16.5543   13.7715  -18.7400 C   0  0  0  0  0  0
  -15.2279   13.7418  -18.4441 C   0  0  0  0  0  0
  -14.5241   14.9421  -18.4339 C   0  0  0  0  0  0
  1  2  1  0  0  0
  2  3  1  0  0  0
  3  4  2  0  0  0
  3 34  1  0  0  0
  4  5  1  0  0  0
  4 31  1  0  0  0
  5  6  1  0  0  0
  6  7  2  0  0  0
  6 11  1  0  0  0
  7  8  1  0  0  0
  8  9  2  0  0  0
  9 10  1  0  0  0
  9 12  1  0  0  0
 10 11  2  0  0  0
 12 13  2  0  0  0
 12 14  2  0  0  0
 12 15  1  0  0  0
 15 16  1  0  0  0
 15 30  1  0  0  0
 16 17  1  0  0  0
 17 18  1  0  0  0
 18 19  1  0  0  0
 18 29  1  0  0  0
 19 20  1  0  0  0
 20 21  2  0  0  0
 20 28  1  0  0  0
 21 22  1  0  0  0
 22 23  2  0  0  0
 22 26  1  0  0  0
 23 24  1  0  0  0
 23 27  1  0  0  0
 24 25  1  0  0  0
 25 26  1  0  0  0
 27 28  2  0  0  0
 29 30  1  0  0  0
 31 32  2  0  0  0
 32 33  1  0  0  0
 33 34  2  0  0  0
M  END
>  <CHROM.0>
-174.39603620,-77.37549109,-44.80846151,66.85923851,168.56650332,-61.93669674
-38.99049883,-48.87829381

>  <CHROM.1>
80.03083698,-126.97818916,160.89737057,-159.09353465,-19.80362836,-23.65859488
-66.17343479,-20.16367476,19.19886543,-14.84782008,-0.81140818,0.33396955
0.46648469

>  <Name>
F1441-0518

>  <RI>
2.21986e+07

>  <Rbt.Current_Directory>
/home/adria/Escritorio/rDock_CMTR_LC/2pxcA_model/inputs_sah

>  <Rbt.Executable>
rbdock ($Id: //depot/dev/client3/rdock/2013.1/src/exe/rbdock.cxx#4 $)

>  <Rbt.Library>
libRbt.so (2013.1, Build901 2013/11/27)

>  <Rbt.Parameter_File>
/home/adria/Escritorio/rDock_2013.1_src/data/scripts/dock.prm

>  <Rbt.Receptor>
sah_rdock.prm

>  <SCORE>
-252.375

>  <SCORE.INTER>
-15.3244

>  <SCORE.INTER.CONST>
1

>  <SCORE.INTER.POLAR>
-1.334

>  <SCORE.INTER.REPUL>
0.191239

>  <SCORE.INTER.ROT>
7

>  <SCORE.INTER.VDW>
-24.145

>  <SCORE.INTER.norm>
-0.450718

>  <SCORE.INTRA>
-237.084

>  <SCORE.INTRA.DIHEDRAL>
6.70225

>  <SCORE.INTRA.DIHEDRAL.0>
6.6817

>  <SCORE.INTRA.POLAR>
0

>  <SCORE.INTRA.POLAR.0>
0

>  <SCORE.INTRA.REPUL>
0.0295297

>  <SCORE.INTRA.REPUL.0>
0

>  <SCORE.INTRA.VDW>
-240.583

>  <SCORE.INTRA.VDW.0>
238.347

>  <SCORE.INTRA.norm>
-6.97306

>  <SCORE.RESTR>
0

>  <SCORE.RESTR.CAVITY>
0

>  <SCORE.RESTR.norm>
0

>  <SCORE.SYSTEM>
0.0330293

>  <SCORE.SYSTEM.CONST>
0

>  <SCORE.SYSTEM.DIHEDRAL>
6.65422

>  <SCORE.SYSTEM.POLAR>
-3.56089

>  <SCORE.SYSTEM.REPUL>
0.0600235

>  <SCORE.SYSTEM.VDW>
8.51284

>  <SCORE.SYSTEM.norm>
0.000971449

>  <SCORE.heavy>
34

>  <SCORE.norm>
-7.42281

$$$$
F1441-0518
  rDOCK(R)          3D
libRbt.so/2013.1/901 2013/11/27
 34 38  0  0  0  0  0  0  0  0999 V2000
  -18.9919   17.4829  -15.7892 C   0  0  0  0  0  0
  -20.0893   18.2640  -15.3060 O   0  0  0  0  0  0
  -21.3404   17.8999  -15.7302 C   0  0  0  0  0  0
  -22.2365   17.3589  -14.8042 C   0  0  0  0  0  0
  -21.7387   16.9689  -13.5493 O   0  0  0  0  0  0
  -22.2644   17.4459  -12.3347 C   0  0  0  0  0  0
  -23.9196   17.8326  -12.1729 C   0  0  0  0  0  0
  -24.3876   19.4740  -11.0616 C   0  0  0  0  0  0
  -23.1443   20.2541  -10.2197 C   0  0  0  0  0  0
  -21.6238   19.6376  -10.3542 C   0  0  0  0  0  0
  -21.1952   18.3394  -11.3894 C   0  0  0  0  0  0
  -23.7152   21.4192   -9.0587 S   0  0  0  0  0  0
  -25.1568   21.3843   -9.0618 O   0  0  0  0  0  0
  -22.9376   21.1566   -7.8637 O   0  0  0  0  0  0
  -23.1849   22.8679   -9.7472 N   0  0  0  0  0  0
  -22.9171   24.0439   -8.8740 C   0  0  0  0  0  0
  -22.8047   25.3934   -9.6749 C   0  0  0  0  0  0
  -22.3495   25.2729  -11.0736 N   0  0  0  0  0  0
  -23.3880   25.4495  -12.1257 C   0  0  0  0  0  0
  -24.4728   24.3892  -12.3521 C   0  0  0  0  0  0
  -25.5027   24.3107  -11.4113 C   0  0  0  0  0  0
  -26.3984   23.3389  -11.6934 C   0  0  0  0  0  0
  -26.2023   22.1373  -12.8748 C   0  0  0  0  0  0
  -26.7044   20.4769  -12.2907 O   0  0  0  0  0  0
  -27.3367   20.5633  -10.4366 C   0  0  0  0  0  0
  -27.0990   22.6089  -10.1767 O   0  0  0  0  0  0
  -25.2336   22.3171  -13.8119 C   0  0  0  0  0  0
  -24.4366   23.5004  -13.5584 C   0  0  0  0  0  0
  -21.5389   24.0531  -11.1963 C   0  0  0  0  0  0
  -22.3215   22.7548  -10.9499 C   0  0  0  0  0  0
  -23.5593   17.2600  -15.2763 C   0  0  0  0  0  0
  -23.9886   17.4727  -16.5776 C   0  0  0  0  0  0
  -23.0554   17.8240  -17.5016 C   0  0  0  0  0  0
  -21.7512   18.0510  -17.0731 C   0  0  0  0  0  0
  1  2  1  0  0  0
  2  3  1  0  0  0
  3  4  2  0  0  0
  3 34  1  0  0  0
  4  5  1  0  0  0
  4 31  1  0  0  0
  5  6  1  0  0  0
  6  7  2  0  0  0
  6 11  1  0  0  0
  7  8  1  0  0  0
  8  9  2  0  0  0
  9 10  1  0  0  0
  9 12  1  0  0  0
 10 11  2  0  0  0
 12 13  2  0  0  0
 12 14  2  0  0  0
 12 15  1  0  0  0
 15 16  1  0  0  0
 15 30  1  0  0  0
 16 17  1  0  0  0
 17 18  1  0  0  0
 18 19  1  0  0  0
 18 29  1  0  0  0
 19 20  1  0  0  0
 20 21  2  0  0  0
 20 28  1  0  0  0
 21 22  1  0  0  0
 22 23  2  0  0  0
 22 26  1  0  0  0
 23 24  1  0  0  0
 23 27  1  0  0  0
 24 25  1  0  0  0
 25 26  1  0  0  0
 27 28  2  0  0  0
 29 30  1  0  0  0
 31 32  2  0  0  0
 32 33  1  0  0  0
 33 34  2  0  0  0
M  END
>  <CHROM.0>
-58.97247641,-69.94385704,-166.73212754,67.05374059,-28.56455780,174.23661134
-157.35209074,-166.23258124

>  <CHROM.1>
111.50402874,124.93617253,32.29120715,2.62755341,-153.48245968,-70.88457655
74.28720149,-23.44447811,20.89057899,-12.09211655,-1.22385413,-0.49751463
0.89548360

>  <Name>
F1441-0518

>  <RI>
2.21986e+07

>  <Rbt.Current_Directory>
/home/adria/Escritorio/rDock_CMTR_LC/2pxcA_model/inputs_sah

>  <Rbt.Executable>
rbdock ($Id: //depot/dev/client3/rdock/2013.1/src/exe/rbdock.cxx#4 $)

>  <Rbt.Library>
libRbt.so (2013.1, Build901 2013/11/27)

>  <Rbt.Parameter_File>
/home/adria/Escritorio/rDock_2013.1_src/data/scripts/dock.prm

>  <Rbt.Receptor>
sah_rdock.prm

>  <SCORE>
-253.63

>  <SCORE.INTER>
-9.31217

>  <SCORE.INTER.CONST>
1

>  <SCORE.INTER.POLAR>
-0.792704

>  <SCORE.INTER.REPUL>
0.38263

>  <SCORE.INTER.ROT>
7

>  <SCORE.INTER.VDW>
-20.9301

>  <SCORE.INTER.norm>
-0.273887

>  <SCORE.INTRA>
-236.872

>  <SCORE.INTRA.DIHEDRAL>
7.17114

>  <SCORE.INTRA.DIHEDRAL.0>
6.6817

>  <SCORE.INTRA.POLAR>
0

>  <SCORE.INTRA.POLAR.0>
0

>  <SCORE.INTRA.REPUL>
0

>  <SCORE.INTRA.REPUL.0>
0

>  <SCORE.INTRA.VDW>
-240.458

>  <SCORE.INTRA.VDW.0>
238.347

>  <SCORE.INTRA.norm>
-6.96683

>  <SCORE.RESTR>
0

>  <SCORE.RESTR.CAVITY>
0

>  <SCORE.RESTR.norm>
0

>  <SCORE.SYSTEM>
-7.44511

>  <SCORE.SYSTEM.CONST>
0

>  <SCORE.SYSTEM.DIHEDRAL>
6.48937

>  <SCORE.SYSTEM.POLAR>
-3.98312

>  <SCORE.SYSTEM.REPUL>
0.0326275

>  <SCORE.SYSTEM.VDW>
2.68968

>  <SCORE.SYSTEM.norm>
-0.218974

>  <SCORE.heavy>
34

>  <SCORE.norm>
-7.45969

$$$$
