F0528-0230
  rDOCK(R)          3D
libRbt.so/2013.1/901 2013/11/27
 35 38  0  0  0  0  0  0  0  0999 V2000
  -16.2217   16.9613  -18.1708 C   0  0  0  0  0  0
  -17.6393   16.9122  -18.0180 O   0  0  0  0  0  0
  -18.1691   17.7065  -17.0399 C   0  0  0  0  0  0
  -18.6752   18.9878  -17.2361 C   0  0  0  0  0  0
  -19.0405   19.7707  -16.1398 C   0  0  0  0  0  0
  -18.9464   19.2722  -14.8340 C   0  0  0  0  0  0
  -18.5683   17.9348  -14.6532 C   0  0  0  0  0  0
  -18.1768   17.1612  -15.7546 C   0  0  0  0  0  0
  -19.2710   20.2227  -13.7215 C   0  0  0  0  0  0
  -18.7791   20.0397  -12.6163 O   0  0  0  0  0  0
  -20.1305   21.2545  -14.0116 N   0  0  0  0  0  0
  -20.5169   22.3105  -13.0910 C   0  0  0  0  0  0
  -21.5351   21.9426  -12.0750 C   0  0  0  0  0  0
  -21.6540   22.5714  -10.9214 N   0  0  0  0  0  0
  -22.8414   22.2296  -10.3649 N   0  0  0  0  0  0
  -23.4378   21.3734  -11.1641 C   0  0  0  0  0  0
  -25.1618   21.1905  -10.9727 S   0  0  0  0  0  0
  -25.8280   22.6917  -10.2648 C   0  0  0  0  0  0
  -24.9920   23.8842  -10.6383 C   0  0  0  0  0  0
  -23.8310   24.7560   -9.5023 C   0  0  0  0  0  0
  -22.5462   25.8727  -10.2347 C   0  0  0  0  0  0
  -21.3389   25.9377   -9.6416 F   0  0  0  0  0  0
  -22.6229   26.3040  -12.0099 C   0  0  0  0  0  0
  -23.8608   25.4813  -13.0873 C   0  0  0  0  0  0
  -24.9951   24.2706  -12.4089 C   0  0  0  0  0  0
  -22.5085   20.9499  -12.1498 N   0  0  0  0  0  0
  -22.5413   19.7745  -12.9682 C   0  0  0  0  0  0
  -21.8683   18.5742  -12.8896 C   0  0  0  0  0  0
  -21.0169   18.1028  -11.7629 C   0  0  0  0  0  0
  -22.1592   17.6047  -13.8726 C   0  0  0  0  0  0
  -23.3238   17.6682  -14.6864 C   0  0  0  0  0  0
  -24.2791   18.8078  -14.7378 C   0  0  0  0  0  0
  -26.0386   19.1859  -15.8228 C   0  0  0  0  0  0
  -23.4237   19.8489  -14.0215 C   0  0  0  0  0  0
  -20.7398   21.1403  -14.8046 H   0  0  0  0  0  0
  1  2  1  0  0  0
  2  3  1  0  0  0
  3  4  2  0  0  0
  3  8  1  0  0  0
  4  5  1  0  0  0
  5  6  2  0  0  0
  6  7  1  0  0  0
  6  9  1  0  0  0
  7  8  2  0  0  0
  9 10  2  0  0  0
  9 11  1  0  0  0
 11 12  1  0  0  0
 11 35  1  0  0  0
 12 13  1  0  0  0
 13 14  2  0  0  0
 13 26  1  0  0  0
 14 15  1  0  0  0
 15 16  2  0  0  0
 16 17  1  0  0  0
 16 26  1  0  0  0
 17 18  1  0  0  0
 18 19  1  0  0  0
 19 20  2  0  0  0
 19 25  1  0  0  0
 20 21  1  0  0  0
 21 22  1  0  0  0
 21 23  2  0  0  0
 23 24  1  0  0  0
 24 25  2  0  0  0
 26 27  1  0  0  0
 27 28  2  0  0  0
 27 34  1  0  0  0
 28 29  1  0  0  0
 28 30  1  0  0  0
 30 31  2  0  0  0
 31 32  1  0  0  0
 32 33  1  0  0  0
 32 34  2  0  0  0
M  END
>  <CHROM.0>
-59.28355547,67.59001454,-164.40868383,-60.67916755,-32.35884786,63.29210527
81.96454150,-160.31884918

>  <CHROM.1>
94.73184759,-154.32153891,-77.93293765,155.45944725,25.26629556,28.36937957
-105.16404442,75.17522288,-21.73522231,20.84327011,-13.18168004,-0.98336905
0.26223204,0.56159334

>  <Name>
F0528-0230

>  <RI>
2.95919e+07

>  <Rbt.Current_Directory>
/home/adria/Escritorio/rDock_CMTR_LC/2pxcA_model/inputs_sah

>  <Rbt.Executable>
rbdock ($Id: //depot/dev/client3/rdock/2013.1/src/exe/rbdock.cxx#4 $)

>  <Rbt.Library>
libRbt.so (2013.1, Build901 2013/11/27)

>  <Rbt.Parameter_File>
/home/adria/Escritorio/rDock_2013.1_src/data/scripts/dock.prm

>  <Rbt.Receptor>
sah_rdock.prm

>  <SCORE>
-219.71

>  <SCORE.INTER>
-9.3036

>  <SCORE.INTER.CONST>
1

>  <SCORE.INTER.POLAR>
0

>  <SCORE.INTER.REPUL>
0.00526289

>  <SCORE.INTER.ROT>
8

>  <SCORE.INTER.VDW>
-22.7299

>  <SCORE.INTER.norm>
-0.273635

>  <SCORE.INTRA>
-203.716

>  <SCORE.INTRA.DIHEDRAL>
12.7541

>  <SCORE.INTRA.DIHEDRAL.0>
11.7306

>  <SCORE.INTRA.POLAR>
0

>  <SCORE.INTRA.POLAR.0>
0

>  <SCORE.INTRA.REPUL>
0

>  <SCORE.INTRA.REPUL.0>
0

>  <SCORE.INTRA.VDW>
-210.093

>  <SCORE.INTRA.VDW.0>
203.739

>  <SCORE.INTRA.norm>
-5.99165

>  <SCORE.RESTR>
0

>  <SCORE.RESTR.CAVITY>
0

>  <SCORE.RESTR.norm>
0

>  <SCORE.SYSTEM>
-6.69045

>  <SCORE.SYSTEM.CONST>
0

>  <SCORE.SYSTEM.DIHEDRAL>
5.64537

>  <SCORE.SYSTEM.POLAR>
-3.59381

>  <SCORE.SYSTEM.VDW>
2.70583

>  <SCORE.SYSTEM.norm>
-0.196778

>  <SCORE.heavy>
34

>  <SCORE.norm>
-6.46206

$$$$
F0528-0230
  rDOCK(R)          3D
libRbt.so/2013.1/901 2013/11/27
 35 38  0  0  0  0  0  0  0  0999 V2000
  -15.4018   13.0687  -19.8098 C   0  0  0  0  0  0
  -14.6390   13.9619  -19.0002 O   0  0  0  0  0  0
  -15.2813   15.0919  -18.5776 C   0  0  0  0  0  0
  -16.6505   15.3193  -18.6779 C   0  0  0  0  0  0
  -17.1758   16.5740  -18.3645 C   0  0  0  0  0  0
  -16.3493   17.6079  -17.9060 C   0  0  0  0  0  0
  -14.9950   17.3306  -17.6750 C   0  0  0  0  0  0
  -14.4671   16.0777  -18.0165 C   0  0  0  0  0  0
  -16.9935   18.9437  -17.6889 C   0  0  0  0  0  0
  -16.2867   19.9258  -17.5074 O   0  0  0  0  0  0
  -18.3667   18.9834  -17.6919 N   0  0  0  0  0  0
  -19.1731   20.1854  -17.5620 C   0  0  0  0  0  0
  -19.2299   20.7827  -16.2039 C   0  0  0  0  0  0
  -18.4064   21.7333  -15.8057 N   0  0  0  0  0  0
  -18.8985   22.2807  -14.6679 N   0  0  0  0  0  0
  -20.0083   21.6496  -14.3555 C   0  0  0  0  0  0
  -21.1046   22.4753  -13.2791 S   0  0  0  0  0  0
  -22.0525   21.2589  -12.3735 C   0  0  0  0  0  0
  -23.1676   21.9067  -11.6008 C   0  0  0  0  0  0
  -23.3660   21.8290   -9.7696 C   0  0  0  0  0  0
  -24.4868   23.0543   -8.9471 C   0  0  0  0  0  0
  -24.1502   23.5138   -7.7269 F   0  0  0  0  0  0
  -25.5719   24.1181   -9.9641 C   0  0  0  0  0  0
  -25.4067   24.0925  -11.7922 C   0  0  0  0  0  0
  -24.1997   23.0281  -12.5814 C   0  0  0  0  0  0
  -20.1171   20.4929  -15.1707 N   0  0  0  0  0  0
  -20.8979   19.3116  -14.9532 C   0  0  0  0  0  0
  -20.5473   17.9883  -14.7927 C   0  0  0  0  0  0
  -19.1718   17.4464  -14.6180 C   0  0  0  0  0  0
  -21.5918   17.0651  -14.5739 C   0  0  0  0  0  0
  -22.8938   17.4676  -14.1677 C   0  0  0  0  0  0
  -23.3749   18.8731  -14.0825 C   0  0  0  0  0  0
  -25.2028   19.7568  -13.5406 C   0  0  0  0  0  0
  -22.2521   19.5417  -14.8705 C   0  0  0  0  0  0
  -18.8551   18.1237  -17.5035 H   0  0  0  0  0  0
  1  2  1  0  0  0
  2  3  1  0  0  0
  3  4  2  0  0  0
  3  8  1  0  0  0
  4  5  1  0  0  0
  5  6  2  0  0  0
  6  7  1  0  0  0
  6  9  1  0  0  0
  7  8  2  0  0  0
  9 10  2  0  0  0
  9 11  1  0  0  0
 11 12  1  0  0  0
 11 35  1  0  0  0
 12 13  1  0  0  0
 13 14  2  0  0  0
 13 26  1  0  0  0
 14 15  1  0  0  0
 15 16  2  0  0  0
 16 17  1  0  0  0
 16 26  1  0  0  0
 17 18  1  0  0  0
 18 19  1  0  0  0
 19 20  2  0  0  0
 19 25  1  0  0  0
 20 21  1  0  0  0
 21 22  1  0  0  0
 21 23  2  0  0  0
 23 24  1  0  0  0
 24 25  2  0  0  0
 26 27  1  0  0  0
 27 28  2  0  0  0
 27 34  1  0  0  0
 28 29  1  0  0  0
 28 30  1  0  0  0
 30 31  2  0  0  0
 31 32  1  0  0  0
 32 33  1  0  0  0
 32 34  2  0  0  0
M  END
>  <CHROM.0>
-178.20667559,-73.16990008,72.49638948,65.57994269,-31.07520903,63.86108787
-39.15129414,-159.54790075

>  <CHROM.1>
11.59806728,-167.89592684,-73.85594282,93.06403597,-152.40520574,-170.59643616
-119.99865187,58.62269580,-20.08053038,19.60845828,-14.86119533,0.72719421
-0.57443300,-2.83770817

>  <Name>
F0528-0230

>  <RI>
2.95919e+07

>  <Rbt.Current_Directory>
/home/adria/Escritorio/rDock_CMTR_LC/2pxcA_model/inputs_sah

>  <Rbt.Executable>
rbdock ($Id: //depot/dev/client3/rdock/2013.1/src/exe/rbdock.cxx#4 $)

>  <Rbt.Library>
libRbt.so (2013.1, Build901 2013/11/27)

>  <Rbt.Parameter_File>
/home/adria/Escritorio/rDock_2013.1_src/data/scripts/dock.prm

>  <Rbt.Receptor>
sah_rdock.prm

>  <SCORE>
-223.802

>  <SCORE.INTER>
-12.493

>  <SCORE.INTER.CONST>
1

>  <SCORE.INTER.POLAR>
-0.200847

>  <SCORE.INTER.REPUL>
0

>  <SCORE.INTER.ROT>
8

>  <SCORE.INTER.VDW>
-25.2102

>  <SCORE.INTER.norm>
-0.367442

>  <SCORE.INTRA>
-203.951

>  <SCORE.INTRA.DIHEDRAL>
2.69843

>  <SCORE.INTRA.DIHEDRAL.0>
11.7306

>  <SCORE.INTRA.POLAR>
0

>  <SCORE.INTRA.POLAR.0>
0

>  <SCORE.INTRA.REPUL>
0

>  <SCORE.INTRA.REPUL.0>
0

>  <SCORE.INTRA.VDW>
-205.301

>  <SCORE.INTRA.VDW.0>
203.739

>  <SCORE.INTRA.norm>
-5.99857

>  <SCORE.RESTR>
0

>  <SCORE.RESTR.CAVITY>
0

>  <SCORE.RESTR.norm>
0

>  <SCORE.SYSTEM>
-7.35708

>  <SCORE.SYSTEM.CONST>
0

>  <SCORE.SYSTEM.DIHEDRAL>
6.35342

>  <SCORE.SYSTEM.POLAR>
-3.98951

>  <SCORE.SYSTEM.REPUL>
0.0388375

>  <SCORE.SYSTEM.VDW>
2.83635

>  <SCORE.SYSTEM.norm>
-0.216385

>  <SCORE.heavy>
34

>  <SCORE.norm>
-6.5824

$$$$
F0528-0230
  rDOCK(R)          3D
libRbt.so/2013.1/901 2013/11/27
 35 38  0  0  0  0  0  0  0  0999 V2000
  -22.1650   26.6194   -9.2921 C   0  0  0  0  0  0
  -22.4392   25.9444  -10.5187 O   0  0  0  0  0  0
  -21.7871   24.7593  -10.7146 C   0  0  0  0  0  0
  -20.4055   24.6075  -10.7817 C   0  0  0  0  0  0
  -19.8540   23.3787  -11.1484 C   0  0  0  0  0  0
  -20.6707   22.2716  -11.4124 C   0  0  0  0  0  0
  -22.0519   22.3939  -11.2077 C   0  0  0  0  0  0
  -22.6032   23.6365  -10.8658 C   0  0  0  0  0  0
  -19.9884   21.0259  -11.8912 C   0  0  0  0  0  0
  -18.7666   20.9983  -11.9493 O   0  0  0  0  0  0
  -20.7926   19.9740  -12.2575 N   0  0  0  0  0  0
  -20.3235   18.6670  -12.6860 C   0  0  0  0  0  0
  -21.1124   18.0176  -13.7632 C   0  0  0  0  0  0
  -22.0299   17.1004  -13.5239 N   0  0  0  0  0  0
  -22.7782   16.9379  -14.6419 N   0  0  0  0  0  0
  -22.3041   17.7357  -15.5726 C   0  0  0  0  0  0
  -23.3740   18.1222  -16.8949 S   0  0  0  0  0  0
  -24.6348   19.2472  -16.3094 C   0  0  0  0  0  0
  -24.7581   19.1909  -14.8121 C   0  0  0  0  0  0
  -24.3287   20.5694  -13.6658 C   0  0  0  0  0  0
  -24.9812   20.5159  -11.9322 C   0  0  0  0  0  0
  -25.3227   21.6756  -11.3389 F   0  0  0  0  0  0
  -25.7891   18.9973  -11.3123 C   0  0  0  0  0  0
  -26.1111   17.6083  -12.4685 C   0  0  0  0  0  0
  -25.6309   17.7291  -14.1912 C   0  0  0  0  0  0
  -21.0574   18.2534  -15.1343 N   0  0  0  0  0  0
  -19.9971   18.8204  -15.9131 C   0  0  0  0  0  0
  -19.4301   20.0766  -15.9271 C   0  0  0  0  0  0
  -19.6748   21.1749  -14.9523 C   0  0  0  0  0  0
  -18.3667   20.2956  -16.8283 C   0  0  0  0  0  0
  -17.6474   19.2287  -17.4341 C   0  0  0  0  0  0
  -18.0046   17.7871  -17.3443 C   0  0  0  0  0  0
  -17.1619   16.0264  -18.1225 C   0  0  0  0  0  0
  -19.4230   17.9417  -16.8030 C   0  0  0  0  0  0
  -21.7452   20.1841  -12.5057 H   0  0  0  0  0  0
  1  2  1  0  0  0
  2  3  1  0  0  0
  3  4  2  0  0  0
  3  8  1  0  0  0
  4  5  1  0  0  0
  5  6  2  0  0  0
  6  7  1  0  0  0
  6  9  1  0  0  0
  7  8  2  0  0  0
  9 10  2  0  0  0
  9 11  1  0  0  0
 11 12  1  0  0  0
 11 35  1  0  0  0
 12 13  1  0  0  0
 13 14  2  0  0  0
 13 26  1  0  0  0
 14 15  1  0  0  0
 15 16  2  0  0  0
 16 17  1  0  0  0
 16 26  1  0  0  0
 17 18  1  0  0  0
 18 19  1  0  0  0
 19 20  2  0  0  0
 19 25  1  0  0  0
 20 21  1  0  0  0
 21 22  1  0  0  0
 21 23  2  0  0  0
 23 24  1  0  0  0
 24 25  2  0  0  0
 26 27  1  0  0  0
 27 28  2  0  0  0
 27 34  1  0  0  0
 28 29  1  0  0  0
 28 30  1  0  0  0
 30 31  2  0  0  0
 31 32  1  0  0  0
 32 33  1  0  0  0
 32 34  2  0  0  0
M  END
>  <CHROM.0>
-66.04842607,65.96789125,-45.52693501,147.84651043,168.59184490,58.21269856
-155.32775578,-162.43582610

>  <CHROM.1>
-61.34563484,4.55035876,-143.12713418,-98.44273210,72.79217975,-19.95516836
113.37564848,-64.99383556,-21.72873743,20.18530770,-13.71033895,-1.81145401
-0.29496754,-2.44607353

>  <Name>
F0528-0230

>  <RI>
2.95919e+07

>  <Rbt.Current_Directory>
/home/adria/Escritorio/rDock_CMTR_LC/2pxcA_model/inputs_sah

>  <Rbt.Executable>
rbdock ($Id: //depot/dev/client3/rdock/2013.1/src/exe/rbdock.cxx#4 $)

>  <Rbt.Library>
libRbt.so (2013.1, Build901 2013/11/27)

>  <Rbt.Parameter_File>
/home/adria/Escritorio/rDock_2013.1_src/data/scripts/dock.prm

>  <Rbt.Receptor>
sah_rdock.prm

>  <SCORE>
-208.919

>  <SCORE.INTER>
-7.5425

>  <SCORE.INTER.CONST>
1

>  <SCORE.INTER.POLAR>
0

>  <SCORE.INTER.REPUL>
0.0699541

>  <SCORE.INTER.ROT>
8

>  <SCORE.INTER.VDW>
-21.2923

>  <SCORE.INTER.norm>
-0.221838

>  <SCORE.INTRA>
-202.339

>  <SCORE.INTRA.DIHEDRAL>
11.683

>  <SCORE.INTRA.DIHEDRAL.0>
11.7306

>  <SCORE.INTRA.POLAR>
0

>  <SCORE.INTRA.POLAR.0>
0

>  <SCORE.INTRA.REPUL>
0

>  <SCORE.INTRA.REPUL.0>
0

>  <SCORE.INTRA.VDW>
-208.18

>  <SCORE.INTRA.VDW.0>
203.739

>  <SCORE.INTRA.norm>
-5.95114

>  <SCORE.RESTR>
0

>  <SCORE.RESTR.CAVITY>
0

>  <SCORE.RESTR.norm>
0

>  <SCORE.SYSTEM>
0.96209

>  <SCORE.SYSTEM.CONST>
0

>  <SCORE.SYSTEM.DIHEDRAL>
7.22381

>  <SCORE.SYSTEM.POLAR>
-3.67253

>  <SCORE.SYSTEM.VDW>
9.83678

>  <SCORE.SYSTEM.norm>
0.0282968

>  <SCORE.heavy>
34

>  <SCORE.norm>
-6.14468

$$$$
F0528-0230
  rDOCK(R)          3D
libRbt.so/2013.1/901 2013/11/27
 35 38  0  0  0  0  0  0  0  0999 V2000
  -20.8178   26.1889  -10.5417 C   0  0  0  0  0  0
  -22.0540   26.5627  -11.1477 O   0  0  0  0  0  0
  -22.8016   25.5456  -11.6717 C   0  0  0  0  0  0
  -22.7097   25.0754  -12.9781 C   0  0  0  0  0  0
  -23.6346   24.1439  -13.4528 C   0  0  0  0  0  0
  -24.6391   23.6357  -12.6191 C   0  0  0  0  0  0
  -24.6404   24.0080  -11.2679 C   0  0  0  0  0  0
  -23.7267   24.9639  -10.8026 C   0  0  0  0  0  0
  -25.6400   22.7148  -13.2490 C   0  0  0  0  0  0
  -26.5177   22.2206  -12.5545 O   0  0  0  0  0  0
  -25.4999   22.4641  -14.5925 N   0  0  0  0  0  0
  -26.4007   21.6534  -15.3945 C   0  0  0  0  0  0
  -25.7562   20.7770  -16.4049 C   0  0  0  0  0  0
  -25.8931   20.9623  -17.7038 N   0  0  0  0  0  0
  -24.9560   20.2231  -18.3455 N   0  0  0  0  0  0
  -24.2625   19.5663  -17.4427 C   0  0  0  0  0  0
  -22.6935   18.9810  -17.9308 S   0  0  0  0  0  0
  -21.7134   18.6643  -16.4689 C   0  0  0  0  0  0
  -20.2502   18.5837  -16.8046 C   0  0  0  0  0  0
  -19.1377   20.0366  -17.0283 C   0  0  0  0  0  0
  -17.3053   19.7686  -16.9582 C   0  0  0  0  0  0
  -16.5363   20.7309  -16.4141 F   0  0  0  0  0  0
  -16.6361   18.0670  -16.9486 C   0  0  0  0  0  0
  -17.7879   16.6434  -16.8217 C   0  0  0  0  0  0
  -19.5571   16.9115  -16.7174 C   0  0  0  0  0  0
  -24.9214   19.6833  -16.1911 N   0  0  0  0  0  0
  -24.7965   18.8538  -15.0298 C   0  0  0  0  0  0
  -24.6303   17.4939  -14.8786 C   0  0  0  0  0  0
  -24.3440   16.5067  -15.9556 C   0  0  0  0  0  0
  -24.5227   16.9985  -13.5618 C   0  0  0  0  0  0
  -24.2265   17.8374  -12.4524 C   0  0  0  0  0  0
  -24.1581   19.3234  -12.4886 C   0  0  0  0  0  0
  -23.7645   20.7991  -11.0452 C   0  0  0  0  0  0
  -24.8303   19.5451  -13.8404 C   0  0  0  0  0  0
  -24.5923   22.6174  -14.9999 H   0  0  0  0  0  0
  1  2  1  0  0  0
  2  3  1  0  0  0
  3  4  2  0  0  0
  3  8  1  0  0  0
  4  5  1  0  0  0
  5  6  2  0  0  0
  6  7  1  0  0  0
  6  9  1  0  0  0
  7  8  2  0  0  0
  9 10  2  0  0  0
  9 11  1  0  0  0
 11 12  1  0  0  0
 11 35  1  0  0  0
 12 13  1  0  0  0
 13 14  2  0  0  0
 13 26  1  0  0  0
 14 15  1  0  0  0
 15 16  2  0  0  0
 16 17  1  0  0  0
 16 26  1  0  0  0
 17 18  1  0  0  0
 18 19  1  0  0  0
 19 20  2  0  0  0
 19 25  1  0  0  0
 20 21  1  0  0  0
 21 22  1  0  0  0
 21 23  2  0  0  0
 23 24  1  0  0  0
 24 25  2  0  0  0
 26 27  1  0  0  0
 27 28  2  0  0  0
 27 34  1  0  0  0
 28 29  1  0  0  0
 28 30  1  0  0  0
 30 31  2  0  0  0
 31 32  1  0  0  0
 32 33  1  0  0  0
 32 34  2  0  0  0
M  END
>  <CHROM.0>
-135.58630270,-74.21027443,-128.39841444,61.01225388,-31.72297299,65.68701928
-126.08410723,-161.33690958

>  <CHROM.1>
-89.91137172,178.29799828,-140.36324879,-112.80542491,159.92308576,-161.97653396
81.41060475,139.99561555,-22.93401591,20.75198023,-14.75132191,-2.02192301
-0.12091826,-2.50507110

>  <Name>
F0528-0230

>  <RI>
2.95919e+07

>  <Rbt.Current_Directory>
/home/adria/Escritorio/rDock_CMTR_LC/2pxcA_model/inputs_sah

>  <Rbt.Executable>
rbdock ($Id: //depot/dev/client3/rdock/2013.1/src/exe/rbdock.cxx#4 $)

>  <Rbt.Library>
libRbt.so (2013.1, Build901 2013/11/27)

>  <Rbt.Parameter_File>
/home/adria/Escritorio/rDock_2013.1_src/data/scripts/dock.prm

>  <Rbt.Receptor>
sah_rdock.prm

>  <SCORE>
-227.49

>  <SCORE.INTER>
-20.3419

>  <SCORE.INTER.CONST>
1

>  <SCORE.INTER.POLAR>
-2.46804

>  <SCORE.INTER.REPUL>
0

>  <SCORE.INTER.ROT>
8

>  <SCORE.INTER.VDW>
-25.3505

>  <SCORE.INTER.norm>
-0.598291

>  <SCORE.INTRA>
-205.583

>  <SCORE.INTRA.DIHEDRAL>
2.59776

>  <SCORE.INTRA.DIHEDRAL.0>
11.7306

>  <SCORE.INTRA.POLAR>
0

>  <SCORE.INTRA.POLAR.0>
0

>  <SCORE.INTRA.REPUL>
0

>  <SCORE.INTRA.REPUL.0>
0

>  <SCORE.INTRA.VDW>
-206.882

>  <SCORE.INTRA.VDW.0>
203.739

>  <SCORE.INTRA.norm>
-6.04656

>  <SCORE.RESTR>
0

>  <SCORE.RESTR.CAVITY>
0

>  <SCORE.RESTR.norm>
0

>  <SCORE.SYSTEM>
-1.56511

>  <SCORE.SYSTEM.CONST>
0

>  <SCORE.SYSTEM.DIHEDRAL>
17.8082

>  <SCORE.SYSTEM.POLAR>
-4.41278

>  <SCORE.SYSTEM.REPUL>
0.0406248

>  <SCORE.SYSTEM.VDW>
4.33115

>  <SCORE.SYSTEM.norm>
-0.0460325

>  <SCORE.heavy>
34

>  <SCORE.norm>
-6.69089

$$$$
F0528-0230
  rDOCK(R)          3D
libRbt.so/2013.1/901 2013/11/27
 35 38  0  0  0  0  0  0  0  0999 V2000
  -20.3541   26.1984  -10.5573 C   0  0  0  0  0  0
  -21.1591   26.6207  -11.6569 O   0  0  0  0  0  0
  -22.0827   25.7208  -12.1099 C   0  0  0  0  0  0
  -21.9367   24.3374  -12.0743 C   0  0  0  0  0  0
  -22.8699   23.5191  -12.7128 C   0  0  0  0  0  0
  -23.9855   24.0661  -13.3600 C   0  0  0  0  0  0
  -24.1998   25.4484  -13.2725 C   0  0  0  0  0  0
  -23.2461   26.2685  -12.6538 C   0  0  0  0  0  0
  -24.8760   23.1118  -14.0968 C   0  0  0  0  0  0
  -25.4270   23.4809  -15.1250 O   0  0  0  0  0  0
  -25.0350   21.8596  -13.5545 N   0  0  0  0  0  0
  -25.8028   20.7779  -14.1482 C   0  0  0  0  0  0
  -25.0581   19.5185  -14.4003 C   0  0  0  0  0  0
  -25.5937   18.4819  -15.0159 N   0  0  0  0  0  0
  -24.6002   17.6320  -15.3721 N   0  0  0  0  0  0
  -23.4603   18.1345  -14.9532 C   0  0  0  0  0  0
  -22.0114   17.5438  -15.7241 S   0  0  0  0  0  0
  -21.2823   18.8688  -16.6785 C   0  0  0  0  0  0
  -19.8273   18.6043  -16.9492 C   0  0  0  0  0  0
  -18.5371   19.9065  -17.1451 C   0  0  0  0  0  0
  -16.7558   19.4190  -16.9917 C   0  0  0  0  0  0
  -15.8980   20.2910  -16.4286 F   0  0  0  0  0  0
  -16.3007   17.6492  -16.9288 C   0  0  0  0  0  0
  -17.6224   16.3789  -16.8316 C   0  0  0  0  0  0
  -19.3482   16.8622  -16.8081 C   0  0  0  0  0  0
  -23.7363   19.2194  -14.0807 N   0  0  0  0  0  0
  -22.8882   19.8131  -13.0904 C   0  0  0  0  0  0
  -23.0946   20.1264  -11.7641 C   0  0  0  0  0  0
  -24.2654   19.7402  -10.9297 C   0  0  0  0  0  0
  -22.0143   20.6989  -11.0598 C   0  0  0  0  0  0
  -20.6747   20.6345  -11.5327 C   0  0  0  0  0  0
  -20.2542   20.1255  -12.8662 C   0  0  0  0  0  0
  -18.3972   19.9220  -13.8284 C   0  0  0  0  0  0
  -21.6227   20.1108  -13.5413 C   0  0  0  0  0  0
  -24.8428   21.7527  -12.5722 H   0  0  0  0  0  0
  1  2  1  0  0  0
  2  3  1  0  0  0
  3  4  2  0  0  0
  3  8  1  0  0  0
  4  5  1  0  0  0
  5  6  2  0  0  0
  6  7  1  0  0  0
  6  9  1  0  0  0
  7  8  2  0  0  0
  9 10  2  0  0  0
  9 11  1  0  0  0
 11 12  1  0  0  0
 11 35  1  0  0  0
 12 13  1  0  0  0
 13 14  2  0  0  0
 13 26  1  0  0  0
 14 15  1  0  0  0
 15 16  2  0  0  0
 16 17  1  0  0  0
 16 26  1  0  0  0
 17 18  1  0  0  0
 18 19  1  0  0  0
 19 20  2  0  0  0
 19 25  1  0  0  0
 20 21  1  0  0  0
 21 22  1  0  0  0
 21 23  2  0  0  0
 23 24  1  0  0  0
 24 25  2  0  0  0
 26 27  1  0  0  0
 27 28  2  0  0  0
 27 34  1  0  0  0
 28 29  1  0  0  0
 28 30  1  0  0  0
 30 31  2  0  0  0
 31 32  1  0  0  0
 32 33  1  0  0  0
 32 34  2  0  0  0
M  END
>  <CHROM.0>
169.63197748,-169.73331458,109.83682661,62.85462402,168.39544255,58.05055152
82.65290341,-162.33495107

>  <CHROM.1>
-31.26112796,-145.81660095,122.63975357,-175.26343407,112.33853603,159.44527836
-149.50359993,46.78456370,-21.85457953,20.82169812,-14.13063656,-2.13111534
-0.17595731,-2.68393669

>  <Name>
F0528-0230

>  <RI>
2.95919e+07

>  <Rbt.Current_Directory>
/home/adria/Escritorio/rDock_CMTR_LC/2pxcA_model/inputs_sah

>  <Rbt.Executable>
rbdock ($Id: //depot/dev/client3/rdock/2013.1/src/exe/rbdock.cxx#4 $)

>  <Rbt.Library>
libRbt.so (2013.1, Build901 2013/11/27)

>  <Rbt.Parameter_File>
/home/adria/Escritorio/rDock_2013.1_src/data/scripts/dock.prm

>  <Rbt.Receptor>
sah_rdock.prm

>  <SCORE>
-219.309

>  <SCORE.INTER>
-15.6047

>  <SCORE.INTER.CONST>
1

>  <SCORE.INTER.POLAR>
-1.76848

>  <SCORE.INTER.REPUL>
0

>  <SCORE.INTER.ROT>
8

>  <SCORE.INTER.VDW>
-22.9918

>  <SCORE.INTER.norm>
-0.458961

>  <SCORE.INTRA>
-203.195

>  <SCORE.INTRA.DIHEDRAL>
7.68791

>  <SCORE.INTRA.DIHEDRAL.0>
11.7306

>  <SCORE.INTRA.POLAR>
0

>  <SCORE.INTRA.POLAR.0>
0

>  <SCORE.INTRA.REPUL>
0

>  <SCORE.INTRA.REPUL.0>
0

>  <SCORE.INTRA.VDW>
-207.039

>  <SCORE.INTRA.VDW.0>
203.739

>  <SCORE.INTRA.norm>
-5.97633

>  <SCORE.RESTR>
0

>  <SCORE.RESTR.CAVITY>
0

>  <SCORE.RESTR.norm>
0

>  <SCORE.SYSTEM>
-0.50871

>  <SCORE.SYSTEM.CONST>
0

>  <SCORE.SYSTEM.DIHEDRAL>
6.63688

>  <SCORE.SYSTEM.POLAR>
-4.1147

>  <SCORE.SYSTEM.VDW>
10.1628

>  <SCORE.SYSTEM.norm>
-0.014962

>  <SCORE.heavy>
34

>  <SCORE.norm>
-6.45025

$$$$
F0528-0230
  rDOCK(R)          3D
libRbt.so/2013.1/901 2013/11/27
 35 38  0  0  0  0  0  0  0  0999 V2000
  -14.0437   13.8929  -19.1603 C   0  0  0  0  0  0
  -14.6889   13.0103  -18.2439 O   0  0  0  0  0  0
  -15.8122   13.4911  -17.6315 C   0  0  0  0  0  0
  -16.9007   14.0583  -18.2871 C   0  0  0  0  0  0
  -17.9212   14.6644  -17.5526 C   0  0  0  0  0  0
  -17.8925   14.6765  -16.1521 C   0  0  0  0  0  0
  -16.8659   13.9828  -15.4970 C   0  0  0  0  0  0
  -15.8292   13.3991  -16.2384 C   0  0  0  0  0  0
  -18.9840   15.4349  -15.4592 C   0  0  0  0  0  0
  -19.2168   15.2043  -14.2804 O   0  0  0  0  0  0
  -19.6812   16.3514  -16.2085 N   0  0  0  0  0  0
  -20.7275   17.2259  -15.7061 C   0  0  0  0  0  0
  -20.5535   17.7091  -14.3130 C   0  0  0  0  0  0
  -19.4354   17.5430  -13.6329 N   0  0  0  0  0  0
  -19.4696   18.3492  -12.5442 N   0  0  0  0  0  0
  -20.6175   18.9894  -12.5437 C   0  0  0  0  0  0
  -20.7024   20.4479  -11.5908 S   0  0  0  0  0  0
  -21.4975   21.7252  -12.5575 C   0  0  0  0  0  0
  -21.8714   22.9011  -11.6985 C   0  0  0  0  0  0
  -23.1605   22.8773  -10.3808 C   0  0  0  0  0  0
  -23.1605   24.2325   -9.1168 C   0  0  0  0  0  0
  -23.5176   23.9319   -7.8536 F   0  0  0  0  0  0
  -22.0837   25.6918   -9.3498 C   0  0  0  0  0  0
  -20.8795   25.7146  -10.7351 C   0  0  0  0  0  0
  -20.7614   24.3245  -11.8604 C   0  0  0  0  0  0
  -21.4638   18.4040  -13.5211 N   0  0  0  0  0  0
  -22.8909   18.4693  -13.6281 C   0  0  0  0  0  0
  -23.8695   17.5024  -13.5438 C   0  0  0  0  0  0
  -23.6889   16.0873  -13.1180 C   0  0  0  0  0  0
  -25.2088   17.9248  -13.6811 C   0  0  0  0  0  0
  -25.5978   19.2859  -13.5447 C   0  0  0  0  0  0
  -24.6677   20.4398  -13.4125 C   0  0  0  0  0  0
  -24.9389   22.5139  -13.2118 C   0  0  0  0  0  0
  -23.3802   19.7386  -13.8361 C   0  0  0  0  0  0
  -19.6689   16.2372  -17.2085 H   0  0  0  0  0  0
  1  2  1  0  0  0
  2  3  1  0  0  0
  3  4  2  0  0  0
  3  8  1  0  0  0
  4  5  1  0  0  0
  5  6  2  0  0  0
  6  7  1  0  0  0
  6  9  1  0  0  0
  7  8  2  0  0  0
  9 10  2  0  0  0
  9 11  1  0  0  0
 11 12  1  0  0  0
 11 35  1  0  0  0
 12 13  1  0  0  0
 13 14  2  0  0  0
 13 26  1  0  0  0
 14 15  1  0  0  0
 15 16  2  0  0  0
 16 17  1  0  0  0
 16 26  1  0  0  0
 17 18  1  0  0  0
 18 19  1  0  0  0
 19 20  2  0  0  0
 19 25  1  0  0  0
 20 21  1  0  0  0
 21 22  1  0  0  0
 21 23  2  0  0  0
 23 24  1  0  0  0
 24 25  2  0  0  0
 26 27  1  0  0  0
 27 28  2  0  0  0
 27 34  1  0  0  0
 28 29  1  0  0  0
 28 30  1  0  0  0
 30 31  2  0  0  0
 31 32  1  0  0  0
 32 33  1  0  0  0
 32 34  2  0  0  0
M  END
>  <CHROM.0>
-176.21167414,-169.92494664,-124.21344970,64.81696217,-30.15173085,-173.17028300
-156.10105045,-161.38622304

>  <CHROM.1>
51.65373874,161.22161510,34.36417654,10.34753396,134.31646407,167.47263118
-67.65026118,61.45479620,-20.62813524,18.60578382,-13.72074035,-1.04754072
0.10158805,0.56227299

>  <Name>
F0528-0230

>  <RI>
2.95919e+07

>  <Rbt.Current_Directory>
/home/adria/Escritorio/rDock_CMTR_LC/2pxcA_model/inputs_sah

>  <Rbt.Executable>
rbdock ($Id: //depot/dev/client3/rdock/2013.1/src/exe/rbdock.cxx#4 $)

>  <Rbt.Library>
libRbt.so (2013.1, Build901 2013/11/27)

>  <Rbt.Parameter_File>
/home/adria/Escritorio/rDock_2013.1_src/data/scripts/dock.prm

>  <Rbt.Receptor>
sah_rdock.prm

>  <SCORE>
-218.186

>  <SCORE.INTER>
-11.5616

>  <SCORE.INTER.CONST>
1

>  <SCORE.INTER.POLAR>
-1.07121

>  <SCORE.INTER.REPUL>
0

>  <SCORE.INTER.ROT>
8

>  <SCORE.INTER.VDW>
-21.3194

>  <SCORE.INTER.norm>
-0.340046

>  <SCORE.INTRA>
-201.218

>  <SCORE.INTRA.DIHEDRAL>
7.25076

>  <SCORE.INTRA.DIHEDRAL.0>
11.7306

>  <SCORE.INTRA.POLAR>
0

>  <SCORE.INTRA.POLAR.0>
0

>  <SCORE.INTRA.REPUL>
0

>  <SCORE.INTRA.REPUL.0>
0

>  <SCORE.INTRA.VDW>
-204.844

>  <SCORE.INTRA.VDW.0>
203.739

>  <SCORE.INTRA.norm>
-5.91819

>  <SCORE.RESTR>
0

>  <SCORE.RESTR.CAVITY>
0

>  <SCORE.RESTR.norm>
0

>  <SCORE.SYSTEM>
-5.40603

>  <SCORE.SYSTEM.CONST>
0

>  <SCORE.SYSTEM.DIHEDRAL>
9.63968

>  <SCORE.SYSTEM.POLAR>
-4.24941

>  <SCORE.SYSTEM.VDW>
4.22211

>  <SCORE.SYSTEM.norm>
-0.159001

>  <SCORE.heavy>
34

>  <SCORE.norm>
-6.41723

$$$$
F0528-0230
  rDOCK(R)          3D
libRbt.so/2013.1/901 2013/11/27
 35 38  0  0  0  0  0  0  0  0999 V2000
  -16.4422   16.6044  -18.4276 C   0  0  0  0  0  0
  -17.5219   17.5329  -18.5132 O   0  0  0  0  0  0
  -17.7009   18.3521  -17.4338 C   0  0  0  0  0  0
  -17.0519   18.2173  -16.2103 C   0  0  0  0  0  0
  -17.4320   19.0099  -15.1260 C   0  0  0  0  0  0
  -18.4360   19.9780  -15.2572 C   0  0  0  0  0  0
  -18.9875   20.2037  -16.5258 C   0  0  0  0  0  0
  -18.6220   19.3873  -17.6051 C   0  0  0  0  0  0
  -18.8375   20.7097  -14.0122 C   0  0  0  0  0  0
  -18.1579   20.5885  -13.0021 O   0  0  0  0  0  0
  -19.9758   21.4762  -14.0772 N   0  0  0  0  0  0
  -20.4927   22.3061  -13.0020 C   0  0  0  0  0  0
  -21.6143   21.7275  -12.2200 C   0  0  0  0  0  0
  -21.9561   22.1698  -11.0251 N   0  0  0  0  0  0
  -23.1787   21.6740  -10.7158 N   0  0  0  0  0  0
  -23.5743   20.9088  -11.7084 C   0  0  0  0  0  0
  -25.2855   20.5892  -11.8194 S   0  0  0  0  0  0
  -26.1801   21.9952  -11.1705 C   0  0  0  0  0  0
  -25.3399   23.2410  -11.2185 C   0  0  0  0  0  0
  -24.5461   24.0350   -9.7563 C   0  0  0  0  0  0
  -23.1783   25.2521  -10.0426 C   0  0  0  0  0  0
  -22.1625   25.2955   -9.1596 F   0  0  0  0  0  0
  -22.8312   25.8462  -11.7367 C   0  0  0  0  0  0
  -23.7165   25.0935  -13.1577 C   0  0  0  0  0  0
  -24.9204   23.7923  -12.8931 C   0  0  0  0  0  0
  -22.4766   20.6962  -12.5826 N   0  0  0  0  0  0
  -22.2866   19.6551  -13.5482 C   0  0  0  0  0  0
  -21.3087   18.6944  -13.6914 C   0  0  0  0  0  0
  -20.2332   18.3661  -12.7157 C   0  0  0  0  0  0
  -21.4407   17.7937  -14.7695 C   0  0  0  0  0  0
  -22.6673   17.6107  -15.4655 C   0  0  0  0  0  0
  -23.8951   18.4304  -15.2799 C   0  0  0  0  0  0
  -25.8075   18.4072  -16.1504 C   0  0  0  0  0  0
  -23.2752   19.5884  -14.5031 C   0  0  0  0  0  0
  -20.6415   21.2562  -14.7995 H   0  0  0  0  0  0
  1  2  1  0  0  0
  2  3  1  0  0  0
  3  4  2  0  0  0
  3  8  1  0  0  0
  4  5  1  0  0  0
  5  6  2  0  0  0
  6  7  1  0  0  0
  6  9  1  0  0  0
  7  8  2  0  0  0
  9 10  2  0  0  0
  9 11  1  0  0  0
 11 12  1  0  0  0
 11 35  1  0  0  0
 12 13  1  0  0  0
 13 14  2  0  0  0
 13 26  1  0  0  0
 14 15  1  0  0  0
 15 16  2  0  0  0
 16 17  1  0  0  0
 16 26  1  0  0  0
 17 18  1  0  0  0
 18 19  1  0  0  0
 19 20  2  0  0  0
 19 25  1  0  0  0
 20 21  1  0  0  0
 21 22  1  0  0  0
 21 23  2  0  0  0
 23 24  1  0  0  0
 24 25  2  0  0  0
 26 27  1  0  0  0
 27 28  2  0  0  0
 27 34  1  0  0  0
 28 29  1  0  0  0
 28 30  1  0  0  0
 30 31  2  0  0  0
 31 32  1  0  0  0
 32 33  1  0  0  0
 32 34  2  0  0  0
M  END
>  <CHROM.0>
-63.63320805,63.40727577,-168.81990132,61.41257836,-29.84609485,-176.68200334
83.11655233,-160.35485597

>  <CHROM.1>
-9.88992058,10.86848917,-100.32320727,161.57119341,30.65998437,22.63653008
-105.52763035,56.22113278,-21.62655688,20.74892658,-13.57265023,-0.90014285
0.20629761,0.67527473

>  <Name>
F0528-0230

>  <RI>
2.95919e+07

>  <Rbt.Current_Directory>
/home/adria/Escritorio/rDock_CMTR_LC/2pxcA_model/inputs_sah

>  <Rbt.Executable>
rbdock ($Id: //depot/dev/client3/rdock/2013.1/src/exe/rbdock.cxx#4 $)

>  <Rbt.Library>
libRbt.so (2013.1, Build901 2013/11/27)

>  <Rbt.Parameter_File>
/home/adria/Escritorio/rDock_2013.1_src/data/scripts/dock.prm

>  <Rbt.Receptor>
sah_rdock.prm

>  <SCORE>
-220.952

>  <SCORE.INTER>
-8.70488

>  <SCORE.INTER.CONST>
1

>  <SCORE.INTER.POLAR>
0

>  <SCORE.INTER.REPUL>
0

>  <SCORE.INTER.ROT>
8

>  <SCORE.INTER.VDW>
-22.1049

>  <SCORE.INTER.norm>
-0.256026

>  <SCORE.INTRA>
-205.303

>  <SCORE.INTRA.DIHEDRAL>
4.04663

>  <SCORE.INTRA.DIHEDRAL.0>
11.7306

>  <SCORE.INTRA.POLAR>
0

>  <SCORE.INTRA.POLAR.0>
0

>  <SCORE.INTRA.REPUL>
0

>  <SCORE.INTRA.REPUL.0>
0

>  <SCORE.INTRA.VDW>
-207.326

>  <SCORE.INTRA.VDW.0>
203.739

>  <SCORE.INTRA.norm>
-6.03832

>  <SCORE.RESTR>
0

>  <SCORE.RESTR.CAVITY>
0

>  <SCORE.RESTR.norm>
0

>  <SCORE.SYSTEM>
-6.944

>  <SCORE.SYSTEM.CONST>
0

>  <SCORE.SYSTEM.DIHEDRAL>
5.79577

>  <SCORE.SYSTEM.POLAR>
-3.61616

>  <SCORE.SYSTEM.VDW>
2.45305

>  <SCORE.SYSTEM.norm>
-0.204235

>  <SCORE.heavy>
34

>  <SCORE.norm>
-6.49858

$$$$
F0528-0230
  rDOCK(R)          3D
libRbt.so/2013.1/901 2013/11/27
 35 38  0  0  0  0  0  0  0  0999 V2000
  -14.3726   13.8712  -18.8786 C   0  0  0  0  0  0
  -14.2147   15.2767  -18.6920 O   0  0  0  0  0  0
  -15.1951   15.9047  -17.9761 C   0  0  0  0  0  0
  -15.5840   15.5661  -16.6836 C   0  0  0  0  0  0
  -16.7058   16.1676  -16.1107 C   0  0  0  0  0  0
  -17.4315   17.1464  -16.8020 C   0  0  0  0  0  0
  -16.9532   17.5817  -18.0453 C   0  0  0  0  0  0
  -15.8424   16.9561  -18.6281 C   0  0  0  0  0  0
  -18.6742   17.6610  -16.1405 C   0  0  0  0  0  0
  -18.9306   17.3120  -14.9962 O   0  0  0  0  0  0
  -19.4743   18.4987  -16.8790 N   0  0  0  0  0  0
  -20.6817   19.1484  -16.3972 C   0  0  0  0  0  0
  -20.5209   20.0009  -15.1923 C   0  0  0  0  0  0
  -19.6309   20.9718  -15.1168 N   0  0  0  0  0  0
  -19.9346   21.7526  -14.0517 N   0  0  0  0  0  0
  -20.9938   21.2465  -13.4607 C   0  0  0  0  0  0
  -21.8995   22.3161  -12.4223 S   0  0  0  0  0  0
  -23.6007   21.7671  -12.3684 C   0  0  0  0  0  0
  -24.2364   22.1018  -11.0477 C   0  0  0  0  0  0
  -23.4718   21.7893   -9.3997 C   0  0  0  0  0  0
  -24.1516   22.6808   -7.9241 C   0  0  0  0  0  0
  -23.2980   23.0610   -6.9545 F   0  0  0  0  0  0
  -25.7127   23.6214   -8.0710 C   0  0  0  0  0  0
  -26.4926   23.8266   -9.7201 C   0  0  0  0  0  0
  -25.7402   23.1048  -11.1781 C   0  0  0  0  0  0
  -21.2447   19.9594  -14.0036 N   0  0  0  0  0  0
  -22.0023   18.8806  -13.4428 C   0  0  0  0  0  0
  -22.2507   18.5046  -12.1402 C   0  0  0  0  0  0
  -21.9187   19.2771  -10.9116 C   0  0  0  0  0  0
  -23.0726   17.3754  -11.9392 C   0  0  0  0  0  0
  -23.9123   16.8509  -12.9600 C   0  0  0  0  0  0
  -23.9206   17.2915  -14.3812 C   0  0  0  0  0  0
  -25.0124   16.7104  -16.0801 C   0  0  0  0  0  0
  -22.6128   18.0778  -14.3789 C   0  0  0  0  0  0
  -19.3860   18.4590  -17.8809 H   0  0  0  0  0  0
  1  2  1  0  0  0
  2  3  1  0  0  0
  3  4  2  0  0  0
  3  8  1  0  0  0
  4  5  1  0  0  0
  5  6  2  0  0  0
  6  7  1  0  0  0
  6  9  1  0  0  0
  7  8  2  0  0  0
  9 10  2  0  0  0
  9 11  1  0  0  0
 11 12  1  0  0  0
 11 35  1  0  0  0
 12 13  1  0  0  0
 13 14  2  0  0  0
 13 26  1  0  0  0
 14 15  1  0  0  0
 15 16  2  0  0  0
 16 17  1  0  0  0
 16 26  1  0  0  0
 17 18  1  0  0  0
 18 19  1  0  0  0
 19 20  2  0  0  0
 19 25  1  0  0  0
 20 21  1  0  0  0
 21 22  1  0  0  0
 21 23  2  0  0  0
 23 24  1  0  0  0
 24 25  2  0  0  0
 26 27  1  0  0  0
 27 28  2  0  0  0
 27 34  1  0  0  0
 28 29  1  0  0  0
 28 30  1  0  0  0
 30 31  2  0  0  0
 31 32  1  0  0  0
 32 33  1  0  0  0
 32 34  2  0  0  0
M  END
>  <CHROM.0>
40.43211608,-76.51435130,-128.98651382,62.27650990,-28.74367455,59.11461080
80.16959155,-170.19908354

>  <CHROM.1>
56.66697671,6.88844811,56.88184764,53.60932055,152.98275226,149.74254884
-46.99789973,147.50919062,-20.87951451,19.30312819,-13.85017609,-0.85919329
0.27936329,0.67067823

>  <Name>
F0528-0230

>  <RI>
2.95919e+07

>  <Rbt.Current_Directory>
/home/adria/Escritorio/rDock_CMTR_LC/2pxcA_model/inputs_sah

>  <Rbt.Executable>
rbdock ($Id: //depot/dev/client3/rdock/2013.1/src/exe/rbdock.cxx#4 $)

>  <Rbt.Library>
libRbt.so (2013.1, Build901 2013/11/27)

>  <Rbt.Parameter_File>
/home/adria/Escritorio/rDock_2013.1_src/data/scripts/dock.prm

>  <Rbt.Receptor>
sah_rdock.prm

>  <SCORE>
-221.586

>  <SCORE.INTER>
-13.196

>  <SCORE.INTER.CONST>
1

>  <SCORE.INTER.POLAR>
-0.795694

>  <SCORE.INTER.REPUL>
0

>  <SCORE.INTER.ROT>
8

>  <SCORE.INTER.VDW>
-23.8906

>  <SCORE.INTER.norm>
-0.388117

>  <SCORE.INTRA>
-205.802

>  <SCORE.INTRA.DIHEDRAL>
-0.0222215

>  <SCORE.INTRA.DIHEDRAL.0>
11.7306

>  <SCORE.INTRA.POLAR>
0

>  <SCORE.INTRA.POLAR.0>
0

>  <SCORE.INTRA.REPUL>
0

>  <SCORE.INTRA.REPUL.0>
0

>  <SCORE.INTRA.VDW>
-205.791

>  <SCORE.INTRA.VDW.0>
203.739

>  <SCORE.INTRA.norm>
-6.05301

>  <SCORE.RESTR>
0

>  <SCORE.RESTR.CAVITY>
0

>  <SCORE.RESTR.norm>
0

>  <SCORE.SYSTEM>
-2.58742

>  <SCORE.SYSTEM.CONST>
0

>  <SCORE.SYSTEM.DIHEDRAL>
11.3152

>  <SCORE.SYSTEM.POLAR>
-4.41188

>  <SCORE.SYSTEM.REPUL>
0.165945

>  <SCORE.SYSTEM.VDW>
5.92566

>  <SCORE.SYSTEM.norm>
-0.0761006

>  <SCORE.heavy>
34

>  <SCORE.norm>
-6.51723

$$$$
F0528-0230
  rDOCK(R)          3D
libRbt.so/2013.1/901 2013/11/27
 35 38  0  0  0  0  0  0  0  0999 V2000
  -20.4922   26.1098  -10.4979 C   0  0  0  0  0  0
  -21.5970   26.5475  -11.2872 O   0  0  0  0  0  0
  -22.4267   25.5696  -11.7596 C   0  0  0  0  0  0
  -22.3332   24.2180  -11.4417 C   0  0  0  0  0  0
  -23.1298   23.2860  -12.1090 C   0  0  0  0  0  0
  -24.0616   23.6923  -13.0729 C   0  0  0  0  0  0
  -24.2484   25.0646  -13.2875 C   0  0  0  0  0  0
  -23.4277   25.9950  -12.6351 C   0  0  0  0  0  0
  -24.7992   22.6090  -13.8002 C   0  0  0  0  0  0
  -25.7366   22.9083  -14.5272 O   0  0  0  0  0  0
  -24.3793   21.3177  -13.5910 N   0  0  0  0  0  0
  -24.9216   20.1407  -14.2486 C   0  0  0  0  0  0
  -23.9269   19.1323  -14.6938 C   0  0  0  0  0  0
  -24.2383   18.1187  -15.4786 N   0  0  0  0  0  0
  -23.0922   17.5756  -15.9559 N   0  0  0  0  0  0
  -22.0796   18.2393  -15.4445 C   0  0  0  0  0  0
  -20.5547   18.1125  -16.2819 S   0  0  0  0  0  0
  -19.2426   17.9655  -15.0757 C   0  0  0  0  0  0
  -17.8942   17.9548  -15.7407 C   0  0  0  0  0  0
  -17.2178   16.5552  -16.7317 C   0  0  0  0  0  0
  -15.7853   16.8805  -17.8615 C   0  0  0  0  0  0
  -15.7252   16.2136  -19.0299 F   0  0  0  0  0  0
  -14.9032   18.4795  -17.7723 C   0  0  0  0  0  0
  -15.5586   19.8147  -16.6966 C   0  0  0  0  0  0
  -17.0463   19.5564  -15.7307 C   0  0  0  0  0  0
  -22.5649   19.0806  -14.4095 N   0  0  0  0  0  0
  -21.8439   19.6751  -13.3237 C   0  0  0  0  0  0
  -20.7391   20.4984  -13.2883 C   0  0  0  0  0  0
  -20.0842   21.1601  -14.4500 C   0  0  0  0  0  0
  -20.2907   20.9239  -12.0199 C   0  0  0  0  0  0
  -21.1038   20.8429  -10.8560 C   0  0  0  0  0  0
  -22.4279   20.1690  -10.7740 C   0  0  0  0  0  0
  -23.8229   19.8818   -9.2289 C   0  0  0  0  0  0
  -22.3612   19.3856  -12.0818 C   0  0  0  0  0  0
  -23.8590   21.1307  -12.7499 H   0  0  0  0  0  0
  1  2  1  0  0  0
  2  3  1  0  0  0
  3  4  2  0  0  0
  3  8  1  0  0  0
  4  5  1  0  0  0
  5  6  2  0  0  0
  6  7  1  0  0  0
  6  9  1  0  0  0
  7  8  2  0  0  0
  9 10  2  0  0  0
  9 11  1  0  0  0
 11 12  1  0  0  0
 11 35  1  0  0  0
 12 13  1  0  0  0
 13 14  2  0  0  0
 13 26  1  0  0  0
 14 15  1  0  0  0
 15 16  2  0  0  0
 16 17  1  0  0  0
 16 26  1  0  0  0
 17 18  1  0  0  0
 18 19  1  0  0  0
 19 20  2  0  0  0
 19 25  1  0  0  0
 20 21  1  0  0  0
 21 22  1  0  0  0
 21 23  2  0  0  0
 23 24  1  0  0  0
 24 25  2  0  0  0
 26 27  1  0  0  0
 27 28  2  0  0  0
 27 34  1  0  0  0
 28 29  1  0  0  0
 28 30  1  0  0  0
 30 31  2  0  0  0
 31 32  1  0  0  0
 32 33  1  0  0  0
 32 34  2  0  0  0
M  END
>  <CHROM.0>
-66.60743012,-73.90424022,-45.74647993,-146.37485432,-29.26904020,63.49081255
-155.94643758,-164.16550582

>  <CHROM.1>
5.40506494,170.96412481,137.96447769,-169.37928389,-139.29765024,-175.81253825
-71.94423429,-126.68489027,-21.24931603,20.59416400,-14.09299458,-2.23077972
-0.21453167,-2.62512604

>  <Name>
F0528-0230

>  <RI>
2.95919e+07

>  <Rbt.Current_Directory>
/home/adria/Escritorio/rDock_CMTR_LC/2pxcA_model/inputs_sah

>  <Rbt.Executable>
rbdock ($Id: //depot/dev/client3/rdock/2013.1/src/exe/rbdock.cxx#4 $)

>  <Rbt.Library>
libRbt.so (2013.1, Build901 2013/11/27)

>  <Rbt.Parameter_File>
/home/adria/Escritorio/rDock_2013.1_src/data/scripts/dock.prm

>  <Rbt.Receptor>
sah_rdock.prm

>  <SCORE>
-224.001

>  <SCORE.INTER>
-14.9947

>  <SCORE.INTER.CONST>
1

>  <SCORE.INTER.POLAR>
-1.16464

>  <SCORE.INTER.REPUL>
0

>  <SCORE.INTER.ROT>
8

>  <SCORE.INTER.VDW>
-24.4349

>  <SCORE.INTER.norm>
-0.441021

>  <SCORE.INTRA>
-204.732

>  <SCORE.INTRA.DIHEDRAL>
2.31793

>  <SCORE.INTRA.DIHEDRAL.0>
11.7306

>  <SCORE.INTRA.POLAR>
0

>  <SCORE.INTRA.POLAR.0>
0

>  <SCORE.INTRA.REPUL>
0

>  <SCORE.INTRA.REPUL.0>
0

>  <SCORE.INTRA.VDW>
-205.891

>  <SCORE.INTRA.VDW.0>
203.739

>  <SCORE.INTRA.norm>
-6.02153

>  <SCORE.RESTR>
0

>  <SCORE.RESTR.CAVITY>
0

>  <SCORE.RESTR.norm>
0

>  <SCORE.SYSTEM>
-4.27439

>  <SCORE.SYSTEM.CONST>
0

>  <SCORE.SYSTEM.DIHEDRAL>
11.2574

>  <SCORE.SYSTEM.POLAR>
-4.11862

>  <SCORE.SYSTEM.REPUL>
0.0401102

>  <SCORE.SYSTEM.VDW>
3.89965

>  <SCORE.SYSTEM.norm>
-0.125717

>  <SCORE.heavy>
34

>  <SCORE.norm>
-6.58827

$$$$
F0528-0230
  rDOCK(R)          3D
libRbt.so/2013.1/901 2013/11/27
 35 38  0  0  0  0  0  0  0  0999 V2000
  -16.5751   16.3306  -18.4880 C   0  0  0  0  0  0
  -16.2509   16.8995  -17.2205 O   0  0  0  0  0  0
  -17.2417   17.6149  -16.6085 C   0  0  0  0  0  0
  -18.5947   17.5412  -16.9253 C   0  0  0  0  0  0
  -19.4976   18.4360  -16.3488 C   0  0  0  0  0  0
  -19.0714   19.3900  -15.4157 C   0  0  0  0  0  0
  -17.7339   19.3673  -14.9976 C   0  0  0  0  0  0
  -16.8256   18.4851  -15.5990 C   0  0  0  0  0  0
  -20.0991   20.3659  -14.9278 C   0  0  0  0  0  0
  -21.2512   20.2711  -15.3286 O   0  0  0  0  0  0
  -19.6739   21.3368  -14.0538 N   0  0  0  0  0  0
  -20.5257   22.3309  -13.4227 C   0  0  0  0  0  0
  -21.7528   21.8103  -12.7688 C   0  0  0  0  0  0
  -22.4928   20.8536  -13.2955 N   0  0  0  0  0  0
  -23.3352   20.3866  -12.3422 N   0  0  0  0  0  0
  -23.1293   21.0731  -11.2406 C   0  0  0  0  0  0
  -23.6709   20.3466   -9.7501 S   0  0  0  0  0  0
  -24.0976   18.6379  -10.0607 C   0  0  0  0  0  0
  -23.2254   18.0482  -11.1339 C   0  0  0  0  0  0
  -23.8356   17.0527  -12.5605 C   0  0  0  0  0  0
  -22.7180   16.8186  -14.0201 C   0  0  0  0  0  0
  -23.2676   16.7745  -15.2487 F   0  0  0  0  0  0
  -20.9653   17.3282  -13.9129 C   0  0  0  0  0  0
  -20.3765   18.2343  -12.4290 C   0  0  0  0  0  0
  -21.5035   18.6113  -11.0871 C   0  0  0  0  0  0
  -22.3055   22.1872  -11.5477 N   0  0  0  0  0  0
  -22.1336   23.4059  -10.8144 C   0  0  0  0  0  0
  -22.9825   24.1203   -9.9966 C   0  0  0  0  0  0
  -24.3160   23.6839   -9.4988 C   0  0  0  0  0  0
  -22.4729   25.2958   -9.4054 C   0  0  0  0  0  0
  -21.0794   25.5686   -9.3270 C   0  0  0  0  0  0
  -20.0063   24.7714   -9.9804 C   0  0  0  0  0  0
  -17.9122   24.9314  -10.0535 C   0  0  0  0  0  0
  -20.8794   23.9596  -10.9328 C   0  0  0  0  0  0
  -18.6914   21.5557  -14.0472 H   0  0  0  0  0  0
  1  2  1  0  0  0
  2  3  1  0  0  0
  3  4  2  0  0  0
  3  8  1  0  0  0
  4  5  1  0  0  0
  5  6  2  0  0  0
  6  7  1  0  0  0
  6  9  1  0  0  0
  7  8  2  0  0  0
  9 10  2  0  0  0
  9 11  1  0  0  0
 11 12  1  0  0  0
 11 35  1  0  0  0
 12 13  1  0  0  0
 13 14  2  0  0  0
 13 26  1  0  0  0
 14 15  1  0  0  0
 15 16  2  0  0  0
 16 17  1  0  0  0
 16 26  1  0  0  0
 17 18  1  0  0  0
 18 19  1  0  0  0
 19 20  2  0  0  0
 19 25  1  0  0  0
 20 21  1  0  0  0
 21 22  1  0  0  0
 21 23  2  0  0  0
 23 24  1  0  0  0
 24 25  2  0  0  0
 26 27  1  0  0  0
 27 28  2  0  0  0
 27 34  1  0  0  0
 28 29  1  0  0  0
 28 30  1  0  0  0
 30 31  2  0  0  0
 31 32  1  0  0  0
 32 33  1  0  0  0
 32 34  2  0  0  0
M  END
>  <CHROM.0>
-175.97960487,-72.35915029,-8.49944015,-146.26008415,167.91113268,59.17521057
-36.22175488,-164.08300694

>  <CHROM.1>
17.86849382,1.82529668,49.64520503,-40.29280171,11.60000258,32.63069650,-133.14541400
146.86197309,-21.03271206,20.31129903,-12.90279012,-1.05666253,0.54183449
0.55687387

>  <Name>
F0528-0230

>  <RI>
2.95919e+07

>  <Rbt.Current_Directory>
/home/adria/Escritorio/rDock_CMTR_LC/2pxcA_model/inputs_sah

>  <Rbt.Executable>
rbdock ($Id: //depot/dev/client3/rdock/2013.1/src/exe/rbdock.cxx#4 $)

>  <Rbt.Library>
libRbt.so (2013.1, Build901 2013/11/27)

>  <Rbt.Parameter_File>
/home/adria/Escritorio/rDock_2013.1_src/data/scripts/dock.prm

>  <Rbt.Receptor>
sah_rdock.prm

>  <SCORE>
-215.611

>  <SCORE.INTER>
-11.3427

>  <SCORE.INTER.CONST>
1

>  <SCORE.INTER.POLAR>
0

>  <SCORE.INTER.REPUL>
0.137456

>  <SCORE.INTER.ROT>
8

>  <SCORE.INTER.VDW>
-25.43

>  <SCORE.INTER.norm>
-0.33361

>  <SCORE.INTRA>
-205.568

>  <SCORE.INTRA.DIHEDRAL>
-3.50326

>  <SCORE.INTRA.DIHEDRAL.0>
11.7306

>  <SCORE.INTRA.POLAR>
0

>  <SCORE.INTRA.POLAR.0>
0

>  <SCORE.INTRA.REPUL>
0

>  <SCORE.INTRA.REPUL.0>
0

>  <SCORE.INTRA.VDW>
-203.816

>  <SCORE.INTRA.VDW.0>
203.739

>  <SCORE.INTRA.norm>
-6.04612

>  <SCORE.RESTR>
0

>  <SCORE.RESTR.CAVITY>
0

>  <SCORE.RESTR.norm>
0

>  <SCORE.SYSTEM>
1.29968

>  <SCORE.SYSTEM.CONST>
0

>  <SCORE.SYSTEM.DIHEDRAL>
10.8165

>  <SCORE.SYSTEM.POLAR>
-4.52255

>  <SCORE.SYSTEM.REPUL>
0.0373711

>  <SCORE.SYSTEM.VDW>
11.0812

>  <SCORE.SYSTEM.norm>
0.038226

>  <SCORE.heavy>
34

>  <SCORE.norm>
-6.3415

$$$$
F0528-0230
  rDOCK(R)          3D
libRbt.so/2013.1/901 2013/11/27
 35 38  0  0  0  0  0  0  0  0999 V2000
  -19.6271   25.8008   -9.9070 C   0  0  0  0  0  0
  -20.8951   26.4539   -9.9315 O   0  0  0  0  0  0
  -21.8904   25.8149  -10.6166 C   0  0  0  0  0  0
  -22.5569   24.6738  -10.1808 C   0  0  0  0  0  0
  -23.4411   24.0117  -11.0341 C   0  0  0  0  0  0
  -23.7060   24.5015  -12.3196 C   0  0  0  0  0  0
  -23.1389   25.7254  -12.7002 C   0  0  0  0  0  0
  -22.2309   26.3724  -11.8506 C   0  0  0  0  0  0
  -24.5946   23.6673  -13.1920 C   0  0  0  0  0  0
  -24.6039   23.8659  -14.3992 O   0  0  0  0  0  0
  -25.3718   22.7209  -12.5694 N   0  0  0  0  0  0
  -26.2470   21.7765  -13.2433 C   0  0  0  0  0  0
  -25.5763   20.6196  -13.8884 C   0  0  0  0  0  0
  -26.1981   19.8040  -14.7181 N   0  0  0  0  0  0
  -25.2696   19.0641  -15.3715 N   0  0  0  0  0  0
  -24.0824   19.4079  -14.9246 C   0  0  0  0  0  0
  -22.7188   19.0217  -15.9414 S   0  0  0  0  0  0
  -21.5554   18.0411  -15.0016 C   0  0  0  0  0  0
  -20.2412   17.9218  -15.7221 C   0  0  0  0  0  0
  -19.2918   16.3556  -15.9320 C   0  0  0  0  0  0
  -17.9707   16.2875  -17.2298 C   0  0  0  0  0  0
  -17.7804   15.1304  -17.8918 F   0  0  0  0  0  0
  -17.4472   17.8225  -18.0742 C   0  0  0  0  0  0
  -18.3618   19.3831  -17.7617 C   0  0  0  0  0  0
  -19.7524   19.4114  -16.6312 C   0  0  0  0  0  0
  -24.2489   20.2164  -13.7700 N   0  0  0  0  0  0
  -23.3077   20.4966  -12.7270 C   0  0  0  0  0  0
  -23.4406   20.5703  -11.3571 C   0  0  0  0  0  0
  -24.6325   20.1786  -10.5558 C   0  0  0  0  0  0
  -22.2785   20.8564  -10.6096 C   0  0  0  0  0  0
  -20.9702   20.7185  -11.1497 C   0  0  0  0  0  0
  -20.6510   20.4292  -12.5739 C   0  0  0  0  0  0
  -18.8594   20.1862  -13.6449 C   0  0  0  0  0  0
  -22.0246   20.7161  -13.1735 C   0  0  0  0  0  0
  -25.5630   22.8504  -11.5897 H   0  0  0  0  0  0
  1  2  1  0  0  0
  2  3  1  0  0  0
  3  4  2  0  0  0
  3  8  1  0  0  0
  4  5  1  0  0  0
  5  6  2  0  0  0
  6  7  1  0  0  0
  6  9  1  0  0  0
  7  8  2  0  0  0
  9 10  2  0  0  0
  9 11  1  0  0  0
 11 12  1  0  0  0
 11 35  1  0  0  0
 12 13  1  0  0  0
 13 14  2  0  0  0
 13 26  1  0  0  0
 14 15  1  0  0  0
 15 16  2  0  0  0
 16 17  1  0  0  0
 16 26  1  0  0  0
 17 18  1  0  0  0
 18 19  1  0  0  0
 19 20  2  0  0  0
 19 25  1  0  0  0
 20 21  1  0  0  0
 21 22  1  0  0  0
 21 23  2  0  0  0
 23 24  1  0  0  0
 24 25  2  0  0  0
 26 27  1  0  0  0
 27 28  2  0  0  0
 27 34  1  0  0  0
 28 29  1  0  0  0
 28 30  1  0  0  0
 30 31  2  0  0  0
 31 32  1  0  0  0
 32 33  1  0  0  0
 32 34  2  0  0  0
M  END
>  <CHROM.0>
-60.34758631,-170.13718898,-47.69544078,60.96979174,-31.21956802,61.45121751
85.03522609,-164.94025291

>  <CHROM.1>
73.43978722,-162.62690584,76.79574289,-168.46013077,-124.39373487,-168.09985622
-134.35471411,39.05442560,-22.19436387,21.01802753,-13.65703669,-1.95488874
-0.05038823,-2.51144642

>  <Name>
F0528-0230

>  <RI>
2.95919e+07

>  <Rbt.Current_Directory>
/home/adria/Escritorio/rDock_CMTR_LC/2pxcA_model/inputs_sah

>  <Rbt.Executable>
rbdock ($Id: //depot/dev/client3/rdock/2013.1/src/exe/rbdock.cxx#4 $)

>  <Rbt.Library>
libRbt.so (2013.1, Build901 2013/11/27)

>  <Rbt.Parameter_File>
/home/adria/Escritorio/rDock_2013.1_src/data/scripts/dock.prm

>  <Rbt.Receptor>
sah_rdock.prm

>  <SCORE>
-224.989

>  <SCORE.INTER>
-12.986

>  <SCORE.INTER.CONST>
1

>  <SCORE.INTER.POLAR>
-0.730719

>  <SCORE.INTER.REPUL>
0

>  <SCORE.INTER.ROT>
8

>  <SCORE.INTER.VDW>
-23.9015

>  <SCORE.INTER.norm>
-0.38194

>  <SCORE.INTRA>
-205.797

>  <SCORE.INTRA.DIHEDRAL>
5.82013

>  <SCORE.INTRA.DIHEDRAL.0>
11.7306

>  <SCORE.INTRA.POLAR>
0

>  <SCORE.INTRA.POLAR.0>
0

>  <SCORE.INTRA.REPUL>
0

>  <SCORE.INTRA.REPUL.0>
0

>  <SCORE.INTRA.VDW>
-208.707

>  <SCORE.INTRA.VDW.0>
203.739

>  <SCORE.INTRA.norm>
-6.05285

>  <SCORE.RESTR>
0

>  <SCORE.RESTR.CAVITY>
0

>  <SCORE.RESTR.norm>
0

>  <SCORE.SYSTEM>
-6.20623

>  <SCORE.SYSTEM.CONST>
0

>  <SCORE.SYSTEM.DIHEDRAL>
5.87238

>  <SCORE.SYSTEM.POLAR>
-3.65801

>  <SCORE.SYSTEM.VDW>
3.29482

>  <SCORE.SYSTEM.norm>
-0.182536

>  <SCORE.heavy>
34

>  <SCORE.norm>
-6.61733

$$$$
F0528-0230
  rDOCK(R)          3D
libRbt.so/2013.1/901 2013/11/27
 35 38  0  0  0  0  0  0  0  0999 V2000
  -16.5046   11.3835  -19.4745 C   0  0  0  0  0  0
  -15.4072   12.1819  -19.0345 O   0  0  0  0  0  0
  -15.7201   13.4128  -18.5296 C   0  0  0  0  0  0
  -15.9872   13.6847  -17.1913 C   0  0  0  0  0  0
  -16.4556   14.9441  -16.8135 C   0  0  0  0  0  0
  -16.6243   15.9642  -17.7586 C   0  0  0  0  0  0
  -16.2218   15.7266  -19.0799 C   0  0  0  0  0  0
  -15.7776   14.4525  -19.4598 C   0  0  0  0  0  0
  -17.2227   17.2483  -17.2691 C   0  0  0  0  0  0
  -17.4102   18.1610  -18.0622 O   0  0  0  0  0  0
  -17.5169   17.3303  -15.9297 N   0  0  0  0  0  0
  -18.1558   18.4608  -15.2773 C   0  0  0  0  0  0
  -19.2642   18.1291  -14.3468 C   0  0  0  0  0  0
  -19.0689   17.5383  -13.1836 N   0  0  0  0  0  0
  -20.1988   17.6574  -12.4449 N   0  0  0  0  0  0
  -21.0934   18.2978  -13.1638 C   0  0  0  0  0  0
  -22.4086   19.0457  -12.2959 S   0  0  0  0  0  0
  -21.8847   19.3682  -10.6167 C   0  0  0  0  0  0
  -22.4059   20.6923  -10.1314 C   0  0  0  0  0  0
  -22.1641   22.3022  -10.9962 C   0  0  0  0  0  0
  -23.2555   23.7276  -10.5365 C   0  0  0  0  0  0
  -23.6276   24.5887  -11.5027 F   0  0  0  0  0  0
  -24.3429   23.6034   -9.0718 C   0  0  0  0  0  0
  -24.4800   22.0043   -8.1809 C   0  0  0  0  0  0
  -23.5504   20.5740   -8.7312 C   0  0  0  0  0  0
  -20.6246   18.3830  -14.5007 N   0  0  0  0  0  0
  -21.3716   18.6154  -15.7009 C   0  0  0  0  0  0
  -21.0557   19.2639  -16.8754 C   0  0  0  0  0  0
  -19.7139   19.7630  -17.2840 C   0  0  0  0  0  0
  -22.0426   19.2923  -17.8834 C   0  0  0  0  0  0
  -23.1597   18.4122  -17.8831 C   0  0  0  0  0  0
  -23.5286   17.4870  -16.7777 C   0  0  0  0  0  0
  -25.0890   16.1090  -16.4910 C   0  0  0  0  0  0
  -22.6368   18.0744  -15.6877 C   0  0  0  0  0  0
  -17.0321   16.7025  -15.3100 H   0  0  0  0  0  0
  1  2  1  0  0  0
  2  3  1  0  0  0
  3  4  2  0  0  0
  3  8  1  0  0  0
  4  5  1  0  0  0
  5  6  2  0  0  0
  6  7  1  0  0  0
  6  9  1  0  0  0
  7  8  2  0  0  0
  9 10  2  0  0  0
  9 11  1  0  0  0
 11 12  1  0  0  0
 11 35  1  0  0  0
 12 13  1  0  0  0
 13 14  2  0  0  0
 13 26  1  0  0  0
 14 15  1  0  0  0
 15 16  2  0  0  0
 16 17  1  0  0  0
 16 26  1  0  0  0
 17 18  1  0  0  0
 18 19  1  0  0  0
 19 20  2  0  0  0
 19 25  1  0  0  0
 20 21  1  0  0  0
 21 22  1  0  0  0
 21 23  2  0  0  0
 23 24  1  0  0  0
 24 25  2  0  0  0
 26 27  1  0  0  0
 27 28  2  0  0  0
 27 34  1  0  0  0
 28 29  1  0  0  0
 28 30  1  0  0  0
 30 31  2  0  0  0
 31 32  1  0  0  0
 32 33  1  0  0  0
 32 34  2  0  0  0
M  END
>  <CHROM.0>
-61.68129710,-70.07850247,-164.13442534,66.51822840,-31.06877712,60.21067640
78.67719922,-158.07331444

>  <CHROM.1>
90.32456923,-178.80004746,133.50812917,70.38538935,24.18649237,140.70219376
-53.89709442,-35.60410285,-20.25065202,18.15938056,-14.85877680,-0.92511433
-0.47422434,1.14535101

>  <Name>
F0528-0230

>  <RI>
2.95919e+07

>  <Rbt.Current_Directory>
/home/adria/Escritorio/rDock_CMTR_LC/2pxcA_model/inputs_sah

>  <Rbt.Executable>
rbdock ($Id: //depot/dev/client3/rdock/2013.1/src/exe/rbdock.cxx#4 $)

>  <Rbt.Library>
libRbt.so (2013.1, Build901 2013/11/27)

>  <Rbt.Parameter_File>
/home/adria/Escritorio/rDock_2013.1_src/data/scripts/dock.prm

>  <Rbt.Receptor>
sah_rdock.prm

>  <SCORE>
-219.737

>  <SCORE.INTER>
-12.4714

>  <SCORE.INTER.CONST>
1

>  <SCORE.INTER.POLAR>
-1.85568

>  <SCORE.INTER.REPUL>
0.00566094

>  <SCORE.INTER.ROT>
8

>  <SCORE.INTER.VDW>
-19.5904

>  <SCORE.INTER.norm>
-0.366806

>  <SCORE.INTRA>
-200.495

>  <SCORE.INTRA.DIHEDRAL>
3.1463

>  <SCORE.INTRA.DIHEDRAL.0>
11.7306

>  <SCORE.INTRA.POLAR>
0

>  <SCORE.INTRA.POLAR.0>
0

>  <SCORE.INTRA.REPUL>
0

>  <SCORE.INTRA.REPUL.0>
0

>  <SCORE.INTRA.VDW>
-202.068

>  <SCORE.INTRA.VDW.0>
203.739

>  <SCORE.INTRA.norm>
-5.89691

>  <SCORE.RESTR>
0.359667

>  <SCORE.RESTR.CAVITY>
0.359667

>  <SCORE.RESTR.norm>
0.0105784

>  <SCORE.SYSTEM>
-7.13015

>  <SCORE.SYSTEM.CONST>
0

>  <SCORE.SYSTEM.DIHEDRAL>
6.16019

>  <SCORE.SYSTEM.POLAR>
-3.78491

>  <SCORE.SYSTEM.REPUL>
0.0329065

>  <SCORE.SYSTEM.VDW>
2.4939

>  <SCORE.SYSTEM.norm>
-0.20971

>  <SCORE.heavy>
34

>  <SCORE.norm>
-6.46285

$$$$
F0528-0230
  rDOCK(R)          3D
libRbt.so/2013.1/901 2013/11/27
 35 38  0  0  0  0  0  0  0  0999 V2000
  -20.2923   26.1878  -10.5754 C   0  0  0  0  0  0
  -21.2981   26.6018  -11.4984 O   0  0  0  0  0  0
  -22.2865   25.6951  -11.7614 C   0  0  0  0  0  0
  -22.3488   24.4057  -11.2419 C   0  0  0  0  0  0
  -23.3140   23.5106  -11.7061 C   0  0  0  0  0  0
  -24.2582   23.9011  -12.6644 C   0  0  0  0  0  0
  -24.2770   25.2395  -13.0799 C   0  0  0  0  0  0
  -23.2893   26.1274  -12.6315 C   0  0  0  0  0  0
  -25.1903   22.8406  -13.1677 C   0  0  0  0  0  0
  -25.9817   23.1146  -14.0596 O   0  0  0  0  0  0
  -25.1085   21.6040  -12.5750 N   0  0  0  0  0  0
  -25.8782   20.4338  -12.9624 C   0  0  0  0  0  0
  -25.3483   19.6635  -14.1158 C   0  0  0  0  0  0
  -26.0864   19.3421  -15.1608 N   0  0  0  0  0  0
  -25.2654   18.9345  -16.1590 N   0  0  0  0  0  0
  -24.0282   18.9820  -15.7179 C   0  0  0  0  0  0
  -22.7670   19.0332  -16.9218 S   0  0  0  0  0  0
  -21.7225   17.5947  -16.7272 C   0  0  0  0  0  0
  -20.2874   17.9914  -16.5191 C   0  0  0  0  0  0
  -19.0115   16.9434  -15.6992 C   0  0  0  0  0  0
  -17.2243   17.3637  -15.9510 C   0  0  0  0  0  0
  -16.3325   16.3572  -16.0248 F   0  0  0  0  0  0
  -16.7668   18.9386  -16.7595 C   0  0  0  0  0  0
  -18.0802   20.0004  -17.4786 C   0  0  0  0  0  0
  -19.8011   19.5079  -17.3841 C   0  0  0  0  0  0
  -24.0548   19.1877  -14.3139 N   0  0  0  0  0  0
  -23.0311   18.9207  -13.3479 C   0  0  0  0  0  0
  -22.9696   18.0472  -12.2835 C   0  0  0  0  0  0
  -23.9443   16.9700  -11.9580 C   0  0  0  0  0  0
  -21.7757   18.0279  -11.5317 C   0  0  0  0  0  0
  -20.5581   18.5783  -12.0183 C   0  0  0  0  0  0
  -20.4093   19.3740  -13.2668 C   0  0  0  0  0  0
  -18.7819   20.3057  -14.2152 C   0  0  0  0  0  0
  -21.8854   19.6619  -13.5254 C   0  0  0  0  0  0
  -24.7007   21.5571  -11.6559 H   0  0  0  0  0  0
  1  2  1  0  0  0
  2  3  1  0  0  0
  3  4  2  0  0  0
  3  8  1  0  0  0
  4  5  1  0  0  0
  5  6  2  0  0  0
  6  7  1  0  0  0
  6  9  1  0  0  0
  7  8  2  0  0  0
  9 10  2  0  0  0
  9 11  1  0  0  0
 11 12  1  0  0  0
 11 35  1  0  0  0
 12 13  1  0  0  0
 13 14  2  0  0  0
 13 26  1  0  0  0
 14 15  1  0  0  0
 15 16  2  0  0  0
 16 17  1  0  0  0
 16 26  1  0  0  0
 17 18  1  0  0  0
 18 19  1  0  0  0
 19 20  2  0  0  0
 19 25  1  0  0  0
 20 21  1  0  0  0
 21 22  1  0  0  0
 21 23  2  0  0  0
 23 24  1  0  0  0
 24 25  2  0  0  0
 26 27  1  0  0  0
 27 28  2  0  0  0
 27 34  1  0  0  0
 28 29  1  0  0  0
 28 30  1  0  0  0
 30 31  2  0  0  0
 31 32  1  0  0  0
 32 33  1  0  0  0
 32 34  2  0  0  0
M  END
>  <CHROM.0>
-62.92961455,65.77676567,110.48340913,-63.37941697,-29.75856098,-179.81648231
-35.80341903,-165.19045241

>  <CHROM.1>
-2.58983863,-175.88987188,82.26406879,-128.17888814,-119.15028545,-123.39861723
156.90469606,61.37417881,-22.15054876,20.51205611,-14.08315863,-2.09885164
-0.10586951,-2.68156796

>  <Name>
F0528-0230

>  <RI>
2.95919e+07

>  <Rbt.Current_Directory>
/home/adria/Escritorio/rDock_CMTR_LC/2pxcA_model/inputs_sah

>  <Rbt.Executable>
rbdock ($Id: //depot/dev/client3/rdock/2013.1/src/exe/rbdock.cxx#4 $)

>  <Rbt.Library>
libRbt.so (2013.1, Build901 2013/11/27)

>  <Rbt.Parameter_File>
/home/adria/Escritorio/rDock_2013.1_src/data/scripts/dock.prm

>  <Rbt.Receptor>
sah_rdock.prm

>  <SCORE>
-224.227

>  <SCORE.INTER>
-15.9961

>  <SCORE.INTER.CONST>
1

>  <SCORE.INTER.POLAR>
-1.6605

>  <SCORE.INTER.REPUL>
0

>  <SCORE.INTER.ROT>
8

>  <SCORE.INTER.VDW>
-23.7505

>  <SCORE.INTER.norm>
-0.470475

>  <SCORE.INTRA>
-201.39

>  <SCORE.INTRA.DIHEDRAL>
7.91482

>  <SCORE.INTRA.DIHEDRAL.0>
11.7306

>  <SCORE.INTRA.POLAR>
0

>  <SCORE.INTRA.POLAR.0>
0

>  <SCORE.INTRA.REPUL>
0

>  <SCORE.INTRA.REPUL.0>
0

>  <SCORE.INTRA.VDW>
-205.348

>  <SCORE.INTRA.VDW.0>
203.739

>  <SCORE.INTRA.norm>
-5.92324

>  <SCORE.RESTR>
0

>  <SCORE.RESTR.CAVITY>
0

>  <SCORE.RESTR.norm>
0

>  <SCORE.SYSTEM>
-6.84045

>  <SCORE.SYSTEM.CONST>
0

>  <SCORE.SYSTEM.DIHEDRAL>
8.86359

>  <SCORE.SYSTEM.POLAR>
-4.31342

>  <SCORE.SYSTEM.VDW>
3.39337

>  <SCORE.SYSTEM.norm>
-0.20119

>  <SCORE.heavy>
34

>  <SCORE.norm>
-6.5949

$$$$
F0528-0230
  rDOCK(R)          3D
libRbt.so/2013.1/901 2013/11/27
 35 38  0  0  0  0  0  0  0  0999 V2000
  -14.8925   14.3027  -18.7085 C   0  0  0  0  0  0
  -14.0561   15.2472  -18.0425 O   0  0  0  0  0  0
  -14.6834   16.3369  -17.5066 C   0  0  0  0  0  0
  -15.6583   16.2918  -16.5146 C   0  0  0  0  0  0
  -16.3478   17.4521  -16.1585 C   0  0  0  0  0  0
  -16.0459   18.6826  -16.7562 C   0  0  0  0  0  0
  -14.9700   18.7462  -17.6521 C   0  0  0  0  0  0
  -14.2985   17.5741  -18.0267 C   0  0  0  0  0  0
  -16.9067   19.8491  -16.3758 C   0  0  0  0  0  0
  -16.8198   20.8894  -17.0140 O   0  0  0  0  0  0
  -17.7477   19.6818  -15.3024 N   0  0  0  0  0  0
  -18.7005   20.6671  -14.8196 C   0  0  0  0  0  0
  -19.6313   20.2023  -13.7604 C   0  0  0  0  0  0
  -19.3255   20.2292  -12.4775 N   0  0  0  0  0  0
  -20.4612   20.0500  -11.7601 N   0  0  0  0  0  0
  -21.4572   19.8883  -12.6023 C   0  0  0  0  0  0
  -23.0628   20.1738  -11.9833 S   0  0  0  0  0  0
  -22.9370   21.0590  -10.4345 C   0  0  0  0  0  0
  -22.8124   22.5394  -10.6651 C   0  0  0  0  0  0
  -23.1185   23.8351   -9.3900 C   0  0  0  0  0  0
  -22.4652   25.5435   -9.6882 C   0  0  0  0  0  0
  -22.0241   26.2551   -8.6335 F   0  0  0  0  0  0
  -21.7863   25.9828  -11.3281 C   0  0  0  0  0  0
  -21.5883   24.6776  -12.6036 C   0  0  0  0  0  0
  -22.0640   22.9851  -12.2543 C   0  0  0  0  0  0
  -20.9246   19.7073  -13.9053 N   0  0  0  0  0  0
  -21.5440   19.1167  -15.0542 C   0  0  0  0  0  0
  -21.0432   18.3433  -16.0794 C   0  0  0  0  0  0
  -19.6830   17.7435  -16.1597 C   0  0  0  0  0  0
  -21.9552   17.9042  -17.0624 C   0  0  0  0  0  0
  -23.3626   17.9168  -16.8581 C   0  0  0  0  0  0
  -24.0598   18.5279  -15.6943 C   0  0  0  0  0  0
  -26.0776   18.7099  -15.1364 C   0  0  0  0  0  0
  -22.8974   19.3487  -15.1433 C   0  0  0  0  0  0
  -17.5183   18.9563  -14.6433 H   0  0  0  0  0  0
  1  2  1  0  0  0
  2  3  1  0  0  0
  3  4  2  0  0  0
  3  8  1  0  0  0
  4  5  1  0  0  0
  5  6  2  0  0  0
  6  7  1  0  0  0
  6  9  1  0  0  0
  7  8  2  0  0  0
  9 10  2  0  0  0
  9 11  1  0  0  0
 11 12  1  0  0  0
 11 35  1  0  0  0
 12 13  1  0  0  0
 13 14  2  0  0  0
 13 26  1  0  0  0
 14 15  1  0  0  0
 15 16  2  0  0  0
 16 17  1  0  0  0
 16 26  1  0  0  0
 17 18  1  0  0  0
 18 19  1  0  0  0
 19 20  2  0  0  0
 19 25  1  0  0  0
 20 21  1  0  0  0
 21 22  1  0  0  0
 21 23  2  0  0  0
 23 24  1  0  0  0
 24 25  2  0  0  0
 26 27  1  0  0  0
 27 28  2  0  0  0
 27 34  1  0  0  0
 28 29  1  0  0  0
 28 30  1  0  0  0
 30 31  2  0  0  0
 31 32  1  0  0  0
 32 33  1  0  0  0
 32 34  2  0  0  0
M  END
>  <CHROM.0>
41.80998583,-167.14688007,76.17994793,64.60678536,-30.95261076,62.73684962
-36.98889296,-166.42645935

>  <CHROM.1>
61.20420813,-168.93926340,172.08353222,86.10906229,15.35740933,84.40171729
162.36848888,32.64077038,-19.96166683,19.92827405,-14.33635097,0.90966995
-0.15591039,-2.45951557

>  <Name>
F0528-0230

>  <RI>
2.95919e+07

>  <Rbt.Current_Directory>
/home/adria/Escritorio/rDock_CMTR_LC/2pxcA_model/inputs_sah

>  <Rbt.Executable>
rbdock ($Id: //depot/dev/client3/rdock/2013.1/src/exe/rbdock.cxx#4 $)

>  <Rbt.Library>
libRbt.so (2013.1, Build901 2013/11/27)

>  <Rbt.Parameter_File>
/home/adria/Escritorio/rDock_2013.1_src/data/scripts/dock.prm

>  <Rbt.Receptor>
sah_rdock.prm

>  <SCORE>
-221.791

>  <SCORE.INTER>
-15.0533

>  <SCORE.INTER.CONST>
1

>  <SCORE.INTER.POLAR>
-0.848528

>  <SCORE.INTER.REPUL>
0.302538

>  <SCORE.INTER.ROT>
8

>  <SCORE.INTER.VDW>
-27.081

>  <SCORE.INTER.norm>
-0.442744

>  <SCORE.INTRA>
-204.602

>  <SCORE.INTRA.DIHEDRAL>
0.838742

>  <SCORE.INTRA.DIHEDRAL.0>
11.7306

>  <SCORE.INTRA.POLAR>
0

>  <SCORE.INTRA.POLAR.0>
0

>  <SCORE.INTRA.REPUL>
0

>  <SCORE.INTRA.REPUL.0>
0

>  <SCORE.INTRA.VDW>
-205.022

>  <SCORE.INTRA.VDW.0>
203.739

>  <SCORE.INTRA.norm>
-6.01771

>  <SCORE.RESTR>
0

>  <SCORE.RESTR.CAVITY>
0

>  <SCORE.RESTR.norm>
0

>  <SCORE.SYSTEM>
-2.1357

>  <SCORE.SYSTEM.CONST>
0

>  <SCORE.SYSTEM.DIHEDRAL>
7.86974

>  <SCORE.SYSTEM.POLAR>
-3.66864

>  <SCORE.SYSTEM.REPUL>
0.116893

>  <SCORE.SYSTEM.VDW>
5.81835

>  <SCORE.SYSTEM.norm>
-0.0628147

>  <SCORE.heavy>
34

>  <SCORE.norm>
-6.52327

$$$$
F0528-0230
  rDOCK(R)          3D
libRbt.so/2013.1/901 2013/11/27
 35 38  0  0  0  0  0  0  0  0999 V2000
  -22.4590   25.9092  -11.7753 C   0  0  0  0  0  0
  -23.6147   25.3164  -11.1852 O   0  0  0  0  0  0
  -24.1076   24.2042  -11.8081 C   0  0  0  0  0  0
  -23.3428   23.1288  -12.2496 C   0  0  0  0  0  0
  -23.9295   22.1222  -13.0182 C   0  0  0  0  0  0
  -25.2967   22.1510  -13.3222 C   0  0  0  0  0  0
  -26.0872   23.1617  -12.7583 C   0  0  0  0  0  0
  -25.4891   24.1849  -12.0098 C   0  0  0  0  0  0
  -25.8105   21.0770  -14.2326 C   0  0  0  0  0  0
  -26.9585   21.1460  -14.6502 O   0  0  0  0  0  0
  -24.9492   20.0511  -14.5376 N   0  0  0  0  0  0
  -25.2366   18.9549  -15.4474 C   0  0  0  0  0  0
  -24.0562   18.2208  -15.9692 C   0  0  0  0  0  0
  -24.0516   17.6147  -17.1409 N   0  0  0  0  0  0
  -22.7702   17.3190  -17.4679 N   0  0  0  0  0  0
  -21.9933   17.7204  -16.4867 C   0  0  0  0  0  0
  -20.3068   17.9536  -16.8659 S   0  0  0  0  0  0
  -19.3308   17.5862  -15.4130 C   0  0  0  0  0  0
  -17.8627   17.7540  -15.6900 C   0  0  0  0  0  0
  -16.7172   16.3915  -16.1695 C   0  0  0  0  0  0
  -15.0863   16.8319  -16.9314 C   0  0  0  0  0  0
  -14.5847   16.0246  -17.8854 F   0  0  0  0  0  0
  -14.5289   18.5733  -16.9407 C   0  0  0  0  0  0
  -15.6694   19.8906  -16.3628 C   0  0  0  0  0  0
  -17.3149   19.4790  -15.7834 C   0  0  0  0  0  0
  -22.8067   18.0634  -15.3753 N   0  0  0  0  0  0
  -22.4422   18.1657  -13.9937 C   0  0  0  0  0  0
  -22.8776   17.4956  -12.8707 C   0  0  0  0  0  0
  -23.7641   16.3001  -12.8348 C   0  0  0  0  0  0
  -22.2797   17.8404  -11.6400 C   0  0  0  0  0  0
  -21.0518   18.5535  -11.5611 C   0  0  0  0  0  0
  -20.3338   19.1647  -12.7122 C   0  0  0  0  0  0
  -18.5517   20.2622  -12.9008 C   0  0  0  0  0  0
  -21.4593   19.0948  -13.7402 C   0  0  0  0  0  0
  -24.1822   19.8875  -13.9067 H   0  0  0  0  0  0
  1  2  1  0  0  0
  2  3  1  0  0  0
  3  4  2  0  0  0
  3  8  1  0  0  0
  4  5  1  0  0  0
  5  6  2  0  0  0
  6  7  1  0  0  0
  6  9  1  0  0  0
  7  8  2  0  0  0
  9 10  2  0  0  0
  9 11  1  0  0  0
 11 12  1  0  0  0
 11 35  1  0  0  0
 12 13  1  0  0  0
 13 14  2  0  0  0
 13 26  1  0  0  0
 14 15  1  0  0  0
 15 16  2  0  0  0
 16 17  1  0  0  0
 16 26  1  0  0  0
 17 18  1  0  0  0
 18 19  1  0  0  0
 19 20  2  0  0  0
 19 25  1  0  0  0
 20 21  1  0  0  0
 21 22  1  0  0  0
 21 23  2  0  0  0
 23 24  1  0  0  0
 24 25  2  0  0  0
 26 27  1  0  0  0
 27 28  2  0  0  0
 27 34  1  0  0  0
 28 29  1  0  0  0
 28 30  1  0  0  0
 30 31  2  0  0  0
 31 32  1  0  0  0
 32 33  1  0  0  0
 32 34  2  0  0  0
M  END
>  <CHROM.0>
-61.10779820,-170.83153695,72.72661186,69.56162501,-31.35256886,-60.49422666
83.25121977,-157.80836988

>  <CHROM.1>
46.02479459,-171.67148942,160.85457559,-151.65514226,-148.53292670,179.24978152
-95.51068684,58.00603614,-21.59779790,19.57673053,-14.52082472,-2.46722149
-0.07364445,-2.60421194

>  <Name>
F0528-0230

>  <RI>
2.95919e+07

>  <Rbt.Current_Directory>
/home/adria/Escritorio/rDock_CMTR_LC/2pxcA_model/inputs_sah

>  <Rbt.Executable>
rbdock ($Id: //depot/dev/client3/rdock/2013.1/src/exe/rbdock.cxx#4 $)

>  <Rbt.Library>
libRbt.so (2013.1, Build901 2013/11/27)

>  <Rbt.Parameter_File>
/home/adria/Escritorio/rDock_2013.1_src/data/scripts/dock.prm

>  <Rbt.Receptor>
sah_rdock.prm

>  <SCORE>
-220.656

>  <SCORE.INTER>
-10.1218

>  <SCORE.INTER.CONST>
1

>  <SCORE.INTER.POLAR>
0

>  <SCORE.INTER.REPUL>
0.0429546

>  <SCORE.INTER.ROT>
8

>  <SCORE.INTER.VDW>
-23.7366

>  <SCORE.INTER.norm>
-0.2977

>  <SCORE.INTRA>
-204.164

>  <SCORE.INTRA.DIHEDRAL>
4.84293

>  <SCORE.INTRA.DIHEDRAL.0>
11.7306

>  <SCORE.INTRA.POLAR>
0

>  <SCORE.INTRA.POLAR.0>
0

>  <SCORE.INTRA.REPUL>
0

>  <SCORE.INTRA.REPUL.0>
0

>  <SCORE.INTRA.VDW>
-206.586

>  <SCORE.INTRA.VDW.0>
203.739

>  <SCORE.INTRA.norm>
-6.00483

>  <SCORE.RESTR>
0

>  <SCORE.RESTR.CAVITY>
0

>  <SCORE.RESTR.norm>
0

>  <SCORE.SYSTEM>
-6.37038

>  <SCORE.SYSTEM.CONST>
0

>  <SCORE.SYSTEM.DIHEDRAL>
6.44782

>  <SCORE.SYSTEM.POLAR>
-3.73659

>  <SCORE.SYSTEM.VDW>
3.11012

>  <SCORE.SYSTEM.norm>
-0.187364

>  <SCORE.heavy>
34

>  <SCORE.norm>
-6.4899

$$$$
F0528-0230
  rDOCK(R)          3D
libRbt.so/2013.1/901 2013/11/27
 35 38  0  0  0  0  0  0  0  0999 V2000
  -17.9871   24.7269  -10.1904 C   0  0  0  0  0  0
  -19.0408   25.6298   -9.8591 O   0  0  0  0  0  0
  -20.2749   25.3286  -10.3633 C   0  0  0  0  0  0
  -20.7189   24.0488  -10.6820 C   0  0  0  0  0  0
  -21.9359   23.8753  -11.3430 C   0  0  0  0  0  0
  -22.7484   24.9721  -11.6582 C   0  0  0  0  0  0
  -22.3615   26.2428  -11.2111 C   0  0  0  0  0  0
  -21.1260   26.4156  -10.5718 C   0  0  0  0  0  0
  -23.9878   24.6903  -12.4525 C   0  0  0  0  0  0
  -24.5687   25.6161  -13.0025 O   0  0  0  0  0  0
  -24.4142   23.3854  -12.5040 N   0  0  0  0  0  0
  -25.5516   22.9024  -13.2688 C   0  0  0  0  0  0
  -25.3779   21.5801  -13.9214 C   0  0  0  0  0  0
  -26.1382   21.1692  -14.9181 N   0  0  0  0  0  0
  -25.5480   20.0944  -15.4952 N   0  0  0  0  0  0
  -24.4409   19.8317  -14.8373 C   0  0  0  0  0  0
  -23.2433   18.8729  -15.6673 S   0  0  0  0  0  0
  -21.6509   19.1449  -14.9001 C   0  0  0  0  0  0
  -20.5588   18.4377  -15.6534 C   0  0  0  0  0  0
  -19.5773   19.1755  -17.0285 C   0  0  0  0  0  0
  -17.9823   18.3656  -17.5123 C   0  0  0  0  0  0
  -16.9622   19.1469  -17.9155 F   0  0  0  0  0  0
  -17.5512   16.7265  -16.8261 C   0  0  0  0  0  0
  -18.6119   15.9840  -15.5249 C   0  0  0  0  0  0
  -20.0661   16.8491  -14.9337 C   0  0  0  0  0  0
  -24.4298   20.5991  -13.6434 N   0  0  0  0  0  0
  -23.6761   20.3829  -12.4444 C   0  0  0  0  0  0
  -24.0185   19.8487  -11.2209 C   0  0  0  0  0  0
  -25.2909   19.1569  -10.8759 C   0  0  0  0  0  0
  -23.0028   19.7654  -10.2451 C   0  0  0  0  0  0
  -21.6219   19.8653  -10.5701 C   0  0  0  0  0  0
  -21.0740   20.2279  -11.9051 C   0  0  0  0  0  0
  -19.1296   20.4618  -12.6671 C   0  0  0  0  0  0
  -22.3566   20.7630  -12.5352 C   0  0  0  0  0  0
  -24.1021   22.7672  -11.7734 H   0  0  0  0  0  0
  1  2  1  0  0  0
  2  3  1  0  0  0
  3  4  2  0  0  0
  3  8  1  0  0  0
  4  5  1  0  0  0
  5  6  2  0  0  0
  6  7  1  0  0  0
  6  9  1  0  0  0
  7  8  2  0  0  0
  9 10  2  0  0  0
  9 11  1  0  0  0
 11 12  1  0  0  0
 11 35  1  0  0  0
 12 13  1  0  0  0
 13 14  2  0  0  0
 13 26  1  0  0  0
 14 15  1  0  0  0
 15 16  2  0  0  0
 16 17  1  0  0  0
 16 26  1  0  0  0
 17 18  1  0  0  0
 18 19  1  0  0  0
 19 20  2  0  0  0
 19 25  1  0  0  0
 20 21  1  0  0  0
 21 22  1  0  0  0
 21 23  2  0  0  0
 23 24  1  0  0  0
 24 25  2  0  0  0
 26 27  1  0  0  0
 27 28  2  0  0  0
 27 34  1  0  0  0
 28 29  1  0  0  0
 28 30  1  0  0  0
 30 31  2  0  0  0
 31 32  1  0  0  0
 32 33  1  0  0  0
 32 34  2  0  0  0
M  END
>  <CHROM.0>
-61.99746923,-167.57928382,-44.48804276,65.77504786,-31.68491765,-57.48802474
83.75909539,-156.37670188

>  <CHROM.1>
27.01658002,-163.98475523,141.43162854,-161.19774127,158.97484720,-174.90537103
90.65388567,75.65251825,-21.97063956,21.23488617,-13.30701635,-1.87657203
-0.03784202,-2.50606067

>  <Name>
F0528-0230

>  <RI>
2.95919e+07

>  <Rbt.Current_Directory>
/home/adria/Escritorio/rDock_CMTR_LC/2pxcA_model/inputs_sah

>  <Rbt.Executable>
rbdock ($Id: //depot/dev/client3/rdock/2013.1/src/exe/rbdock.cxx#4 $)

>  <Rbt.Library>
libRbt.so (2013.1, Build901 2013/11/27)

>  <Rbt.Parameter_File>
/home/adria/Escritorio/rDock_2013.1_src/data/scripts/dock.prm

>  <Rbt.Receptor>
sah_rdock.prm

>  <SCORE>
-222.179

>  <SCORE.INTER>
-12.5542

>  <SCORE.INTER.CONST>
1

>  <SCORE.INTER.POLAR>
-0.533819

>  <SCORE.INTER.REPUL>
0

>  <SCORE.INTER.ROT>
8

>  <SCORE.INTER.VDW>
-24.1392

>  <SCORE.INTER.norm>
-0.369241

>  <SCORE.INTRA>
-203.45

>  <SCORE.INTRA.DIHEDRAL>
5.54851

>  <SCORE.INTRA.DIHEDRAL.0>
11.7306

>  <SCORE.INTRA.POLAR>
0

>  <SCORE.INTRA.POLAR.0>
0

>  <SCORE.INTRA.REPUL>
0

>  <SCORE.INTRA.REPUL.0>
0

>  <SCORE.INTRA.VDW>
-206.224

>  <SCORE.INTRA.VDW.0>
203.739

>  <SCORE.INTRA.norm>
-5.98382

>  <SCORE.RESTR>
0

>  <SCORE.RESTR.CAVITY>
0

>  <SCORE.RESTR.norm>
0

>  <SCORE.SYSTEM>
-6.17545

>  <SCORE.SYSTEM.CONST>
0

>  <SCORE.SYSTEM.DIHEDRAL>
6.77141

>  <SCORE.SYSTEM.POLAR>
-3.6787

>  <SCORE.SYSTEM.VDW>
2.94644

>  <SCORE.SYSTEM.norm>
-0.181631

>  <SCORE.heavy>
34

>  <SCORE.norm>
-6.53469

$$$$
F0528-0230
  rDOCK(R)          3D
libRbt.so/2013.1/901 2013/11/27
 35 38  0  0  0  0  0  0  0  0999 V2000
  -24.4484   19.1485   -9.4486 C   0  0  0  0  0  0
  -24.8874   20.2367  -10.2599 O   0  0  0  0  0  0
  -23.9654   20.7551  -11.1255 C   0  0  0  0  0  0
  -23.5436   20.1472  -12.3040 C   0  0  0  0  0  0
  -22.4788   20.6873  -13.0271 C   0  0  0  0  0  0
  -21.8463   21.8651  -12.6084 C   0  0  0  0  0  0
  -22.3657   22.5466  -11.4993 C   0  0  0  0  0  0
  -23.4175   21.9865  -10.7610 C   0  0  0  0  0  0
  -20.6530   22.3103  -13.3986 C   0  0  0  0  0  0
  -20.0720   23.3377  -13.0762 O   0  0  0  0  0  0
  -20.2850   21.5304  -14.4680 N   0  0  0  0  0  0
  -19.1259   21.7579  -15.3146 C   0  0  0  0  0  0
  -18.8132   20.6802  -16.2868 C   0  0  0  0  0  0
  -17.9262   20.8236  -17.2526 N   0  0  0  0  0  0
  -17.6374   19.5996  -17.7575 N   0  0  0  0  0  0
  -18.3651   18.7104  -17.1192 C   0  0  0  0  0  0
  -17.8174   17.0556  -17.1837 S   0  0  0  0  0  0
  -18.8897   16.0510  -16.1643 C   0  0  0  0  0  0
  -18.5023   14.6001  -16.2363 C   0  0  0  0  0  0
  -18.0055   13.7160  -17.7758 C   0  0  0  0  0  0
  -17.1109   12.1005  -17.6203 C   0  0  0  0  0  0
  -16.1616   11.8027  -18.5277 F   0  0  0  0  0  0
  -16.9832   11.2865  -15.9880 C   0  0  0  0  0  0
  -17.5798   12.1650  -14.4906 C   0  0  0  0  0  0
  -18.2921   13.8046  -14.6215 C   0  0  0  0  0  0
  -19.3404   19.3928  -16.3463 N   0  0  0  0  0  0
  -20.5738   18.8946  -15.8144 C   0  0  0  0  0  0
  -20.9046   18.3691  -14.5839 C   0  0  0  0  0  0
  -20.0502   18.3501  -13.3649 C   0  0  0  0  0  0
  -22.2476   17.9846  -14.3854 C   0  0  0  0  0  0
  -23.3019   18.4300  -15.2294 C   0  0  0  0  0  0
  -23.1299   19.1960  -16.4934 C   0  0  0  0  0  0
  -24.4636   19.9636  -17.9245 C   0  0  0  0  0  0
  -21.6333   18.9710  -16.6891 C   0  0  0  0  0  0
  -20.9865   20.9268  -14.8640 H   0  0  0  0  0  0
  1  2  1  0  0  0
  2  3  1  0  0  0
  3  4  2  0  0  0
  3  8  1  0  0  0
  4  5  1  0  0  0
  5  6  2  0  0  0
  6  7  1  0  0  0
  6  9  1  0  0  0
  7  8  2  0  0  0
  9 10  2  0  0  0
  9 11  1  0  0  0
 11 12  1  0  0  0
 11 35  1  0  0  0
 12 13  1  0  0  0
 13 14  2  0  0  0
 13 26  1  0  0  0
 14 15  1  0  0  0
 15 16  2  0  0  0
 16 17  1  0  0  0
 16 26  1  0  0  0
 17 18  1  0  0  0
 18 19  1  0  0  0
 19 20  2  0  0  0
 19 25  1  0  0  0
 20 21  1  0  0  0
 21 22  1  0  0  0
 21 23  2  0  0  0
 23 24  1  0  0  0
 24 25  2  0  0  0
 26 27  1  0  0  0
 27 28  2  0  0  0
 27 34  1  0  0  0
 28 29  1  0  0  0
 28 30  1  0  0  0
 30 31  2  0  0  0
 31 32  1  0  0  0
 32 33  1  0  0  0
 32 34  2  0  0  0
M  END
>  <CHROM.0>
-62.95796310,-66.63268255,112.25240677,64.63653305,169.30888810,64.13569669
-35.87124824,-167.09376060

>  <CHROM.1>
74.26838082,179.55917177,171.48474723,169.47377218,176.26287894,177.25577301
-41.34064948,-88.16779380,-20.31813915,18.40421195,-14.95141401,2.48564138
0.84865415,-0.20607701

>  <Name>
F0528-0230

>  <RI>
2.95919e+07

>  <Rbt.Current_Directory>
/home/adria/Escritorio/rDock_CMTR_LC/2pxcA_model/inputs_sah

>  <Rbt.Executable>
rbdock ($Id: //depot/dev/client3/rdock/2013.1/src/exe/rbdock.cxx#4 $)

>  <Rbt.Library>
libRbt.so (2013.1, Build901 2013/11/27)

>  <Rbt.Parameter_File>
/home/adria/Escritorio/rDock_2013.1_src/data/scripts/dock.prm

>  <Rbt.Receptor>
sah_rdock.prm

>  <SCORE>
-218.024

>  <SCORE.INTER>
-12.2763

>  <SCORE.INTER.CONST>
1

>  <SCORE.INTER.POLAR>
-1.24778

>  <SCORE.INTER.REPUL>
0

>  <SCORE.INTER.ROT>
8

>  <SCORE.INTER.VDW>
-21.4338

>  <SCORE.INTER.norm>
-0.361067

>  <SCORE.INTRA>
-203.651

>  <SCORE.INTRA.DIHEDRAL>
8.23319

>  <SCORE.INTRA.DIHEDRAL.0>
11.7306

>  <SCORE.INTRA.POLAR>
0

>  <SCORE.INTRA.POLAR.0>
0

>  <SCORE.INTRA.REPUL>
0

>  <SCORE.INTRA.REPUL.0>
0

>  <SCORE.INTRA.VDW>
-207.768

>  <SCORE.INTRA.VDW.0>
203.739

>  <SCORE.INTRA.norm>
-5.98974

>  <SCORE.RESTR>
0.134806

>  <SCORE.RESTR.CAVITY>
0.134806

>  <SCORE.RESTR.norm>
0.00396488

>  <SCORE.SYSTEM>
-2.23149

>  <SCORE.SYSTEM.CONST>
0

>  <SCORE.SYSTEM.DIHEDRAL>
5.90394

>  <SCORE.SYSTEM.POLAR>
-4.41768

>  <SCORE.SYSTEM.REPUL>
0.025242

>  <SCORE.SYSTEM.VDW>
9.71046

>  <SCORE.SYSTEM.norm>
-0.0656321

>  <SCORE.heavy>
34

>  <SCORE.norm>
-6.41247

$$$$
F0528-0230
  rDOCK(R)          3D
libRbt.so/2013.1/901 2013/11/27
 35 38  0  0  0  0  0  0  0  0999 V2000
  -20.6708   26.1751  -10.6239 C   0  0  0  0  0  0
  -21.8547   26.5877  -11.3045 O   0  0  0  0  0  0
  -22.7878   25.6162  -11.5361 C   0  0  0  0  0  0
  -23.3949   24.8392  -10.5543 C   0  0  0  0  0  0
  -24.2109   23.7663  -10.9168 C   0  0  0  0  0  0
  -24.4677   23.4783  -12.2635 C   0  0  0  0  0  0
  -23.9666   24.3478  -13.2419 C   0  0  0  0  0  0
  -23.1258   25.4076  -12.8746 C   0  0  0  0  0  0
  -25.2768   22.2497  -12.5506 C   0  0  0  0  0  0
  -25.7971   21.6461  -11.6222 O   0  0  0  0  0  0
  -25.3751   21.8587  -13.8639 N   0  0  0  0  0  0
  -26.1612   20.7374  -14.3504 C   0  0  0  0  0  0
  -25.3919   19.5295  -14.7422 C   0  0  0  0  0  0
  -25.8186   18.6733  -15.6505 N   0  0  0  0  0  0
  -24.7836   17.8763  -16.0111 N   0  0  0  0  0  0
  -23.7310   18.2269  -15.3065 C   0  0  0  0  0  0
  -22.1737   17.7515  -15.9322 S   0  0  0  0  0  0
  -21.0845   19.1698  -15.9121 C   0  0  0  0  0  0
  -19.6903   18.7880  -16.3254 C   0  0  0  0  0  0
  -18.4162   19.9642  -16.9513 C   0  0  0  0  0  0
  -16.6420   19.4292  -16.9546 C   0  0  0  0  0  0
  -15.6934   20.3503  -16.6990 F   0  0  0  0  0  0
  -16.2189   17.6843  -16.6089 C   0  0  0  0  0  0
  -17.5379   16.5219  -16.0808 C   0  0  0  0  0  0
  -19.2315   17.0840  -15.9126 C   0  0  0  0  0  0
  -24.1478   19.1110  -14.2775 N   0  0  0  0  0  0
  -23.4814   19.4412  -13.0530 C   0  0  0  0  0  0
  -23.8727   19.3517  -11.7344 C   0  0  0  0  0  0
  -25.0955   18.6824  -11.2118 C   0  0  0  0  0  0
  -22.9405   19.7553  -10.7551 C   0  0  0  0  0  0
  -21.5535   19.8990  -11.0345 C   0  0  0  0  0  0
  -20.9322   19.8145  -12.3839 C   0  0  0  0  0  0
  -18.9625   19.9919  -13.0943 C   0  0  0  0  0  0
  -22.2029   19.9212  -13.2220 C   0  0  0  0  0  0
  -24.6649   22.1846  -14.4984 H   0  0  0  0  0  0
  1  2  1  0  0  0
  2  3  1  0  0  0
  3  4  2  0  0  0
  3  8  1  0  0  0
  4  5  1  0  0  0
  5  6  2  0  0  0
  6  7  1  0  0  0
  6  9  1  0  0  0
  7  8  2  0  0  0
  9 10  2  0  0  0
  9 11  1  0  0  0
 11 12  1  0  0  0
 11 35  1  0  0  0
 12 13  1  0  0  0
 13 14  2  0  0  0
 13 26  1  0  0  0
 14 15  1  0  0  0
 15 16  2  0  0  0
 16 17  1  0  0  0
 16 26  1  0  0  0
 17 18  1  0  0  0
 18 19  1  0  0  0
 19 20  2  0  0  0
 19 25  1  0  0  0
 20 21  1  0  0  0
 21 22  1  0  0  0
 21 23  2  0  0  0
 23 24  1  0  0  0
 24 25  2  0  0  0
 26 27  1  0  0  0
 27 28  2  0  0  0
 27 34  1  0  0  0
 28 29  1  0  0  0
 28 30  1  0  0  0
 30 31  2  0  0  0
 31 32  1  0  0  0
 32 33  1  0  0  0
 32 34  2  0  0  0
M  END
>  <CHROM.0>
-58.86283632,-167.93880161,-7.17941674,67.10576901,168.65481892,62.03358579
-157.16212642,-166.73685808

>  <CHROM.1>
57.87504457,8.08435979,-105.37530621,-152.36006712,131.48687734,174.88341651
159.57745768,53.94891633,-22.20709728,20.62151591,-13.78450270,-2.26228258
-0.23530388,-2.62648417

>  <Name>
F0528-0230

>  <RI>
2.95919e+07

>  <Rbt.Current_Directory>
/home/adria/Escritorio/rDock_CMTR_LC/2pxcA_model/inputs_sah

>  <Rbt.Executable>
rbdock ($Id: //depot/dev/client3/rdock/2013.1/src/exe/rbdock.cxx#4 $)

>  <Rbt.Library>
libRbt.so (2013.1, Build901 2013/11/27)

>  <Rbt.Parameter_File>
/home/adria/Escritorio/rDock_2013.1_src/data/scripts/dock.prm

>  <Rbt.Receptor>
sah_rdock.prm

>  <SCORE>
-220.991

>  <SCORE.INTER>
-14.6965

>  <SCORE.INTER.CONST>
1

>  <SCORE.INTER.POLAR>
-1.68684

>  <SCORE.INTER.REPUL>
0.00177806

>  <SCORE.INTER.ROT>
8

>  <SCORE.INTER.VDW>
-22.3702

>  <SCORE.INTER.norm>
-0.432251

>  <SCORE.INTRA>
-204.955

>  <SCORE.INTRA.DIHEDRAL>
5.7615

>  <SCORE.INTRA.DIHEDRAL.0>
11.7306

>  <SCORE.INTRA.POLAR>
0

>  <SCORE.INTRA.POLAR.0>
0

>  <SCORE.INTRA.REPUL>
0

>  <SCORE.INTRA.REPUL.0>
0

>  <SCORE.INTRA.VDW>
-207.836

>  <SCORE.INTRA.VDW.0>
203.739

>  <SCORE.INTRA.norm>
-6.0281

>  <SCORE.RESTR>
0

>  <SCORE.RESTR.CAVITY>
0

>  <SCORE.RESTR.norm>
0

>  <SCORE.SYSTEM>
-1.33907

>  <SCORE.SYSTEM.CONST>
0

>  <SCORE.SYSTEM.DIHEDRAL>
6.44167

>  <SCORE.SYSTEM.POLAR>
-4.23207

>  <SCORE.SYSTEM.VDW>
9.82913

>  <SCORE.SYSTEM.norm>
-0.0393844

>  <SCORE.heavy>
34

>  <SCORE.norm>
-6.49974

$$$$
F0528-0230
  rDOCK(R)          3D
libRbt.so/2013.1/901 2013/11/27
 35 38  0  0  0  0  0  0  0  0999 V2000
  -14.2026   13.7248  -19.0881 C   0  0  0  0  0  0
  -15.6171   13.5559  -19.1651 O   0  0  0  0  0  0
  -16.3750   14.6236  -18.7734 C   0  0  0  0  0  0
  -15.9036   15.9225  -18.6092 C   0  0  0  0  0  0
  -16.7275   16.8998  -18.0483 C   0  0  0  0  0  0
  -18.0475   16.6068  -17.6819 C   0  0  0  0  0  0
  -18.5587   15.3359  -17.9782 C   0  0  0  0  0  0
  -17.7199   14.3502  -18.5165 C   0  0  0  0  0  0
  -18.8186   17.6966  -17.0005 C   0  0  0  0  0  0
  -18.2287   18.6995  -16.6219 O   0  0  0  0  0  0
  -20.1659   17.4934  -16.8249 N   0  0  0  0  0  0
  -21.0921   18.4521  -16.2462 C   0  0  0  0  0  0
  -21.0222   18.6102  -14.7715 C   0  0  0  0  0  0
  -19.9162   18.4060  -14.0820 N   0  0  0  0  0  0
  -20.0799   18.9262  -12.8414 N   0  0  0  0  0  0
  -21.2931   19.4256  -12.7627 C   0  0  0  0  0  0
  -21.5774   20.6028  -11.5074 S   0  0  0  0  0  0
  -22.3771   22.0324  -12.2250 C   0  0  0  0  0  0
  -21.8127   23.3077  -11.6633 C   0  0  0  0  0  0
  -22.8174   24.7016  -10.9951 C   0  0  0  0  0  0
  -21.9828   25.9600   -9.9209 C   0  0  0  0  0  0
  -22.6804   26.4987   -8.9028 F   0  0  0  0  0  0
  -20.1605   25.9600   -9.7699 C   0  0  0  0  0  0
  -19.1902   24.6023  -10.5344 C   0  0  0  0  0  0
  -20.0154   23.2884  -11.4319 C   0  0  0  0  0  0
  -22.0328   19.0015  -13.8973 N   0  0  0  0  0  0
  -23.4535   18.9417  -14.0717 C   0  0  0  0  0  0
  -24.2584   18.1138  -14.8243 C   0  0  0  0  0  0
  -23.8387   16.8849  -15.5522 C   0  0  0  0  0  0
  -25.6517   18.3242  -14.7489 C   0  0  0  0  0  0
  -26.2547   19.0760  -13.7031 C   0  0  0  0  0  0
  -25.5230   19.8617  -12.6730 C   0  0  0  0  0  0
  -26.1252   21.0536  -11.0504 C   0  0  0  0  0  0
  -24.1486   19.8739  -13.3359 C   0  0  0  0  0  0
  -20.4970   16.5430  -16.8432 H   0  0  0  0  0  0
  1  2  1  0  0  0
  2  3  1  0  0  0
  3  4  2  0  0  0
  3  8  1  0  0  0
  4  5  1  0  0  0
  5  6  2  0  0  0
  6  7  1  0  0  0
  6  9  1  0  0  0
  7  8  2  0  0  0
  9 10  2  0  0  0
  9 11  1  0  0  0
 11 12  1  0  0  0
 11 35  1  0  0  0
 12 13  1  0  0  0
 13 14  2  0  0  0
 13 26  1  0  0  0
 14 15  1  0  0  0
 15 16  2  0  0  0
 16 17  1  0  0  0
 16 26  1  0  0  0
 17 18  1  0  0  0
 18 19  1  0  0  0
 19 20  2  0  0  0
 19 25  1  0  0  0
 20 21  1  0  0  0
 21 22  1  0  0  0
 21 23  2  0  0  0
 23 24  1  0  0  0
 24 25  2  0  0  0
 26 27  1  0  0  0
 27 28  2  0  0  0
 27 34  1  0  0  0
 28 29  1  0  0  0
 28 30  1  0  0  0
 30 31  2  0  0  0
 31 32  1  0  0  0
 32 33  1  0  0  0
 32 34  2  0  0  0
M  END
>  <CHROM.0>
-53.76087554,-70.09808800,-124.48825011,65.55894063,-30.07086184,-53.80717286
-36.15023432,-158.73434583

>  <CHROM.1>
15.55620952,-10.50102838,-75.24394128,28.52986872,130.33002240,-138.74661651
-130.46441006,27.21423186,-20.81796472,19.38393516,-14.27995876,-1.09030913
0.17817338,0.64541129

>  <Name>
F0528-0230

>  <RI>
2.95919e+07

>  <Rbt.Current_Directory>
/home/adria/Escritorio/rDock_CMTR_LC/2pxcA_model/inputs_sah

>  <Rbt.Executable>
rbdock ($Id: //depot/dev/client3/rdock/2013.1/src/exe/rbdock.cxx#4 $)

>  <Rbt.Library>
libRbt.so (2013.1, Build901 2013/11/27)

>  <Rbt.Parameter_File>
/home/adria/Escritorio/rDock_2013.1_src/data/scripts/dock.prm

>  <Rbt.Receptor>
sah_rdock.prm

>  <SCORE>
-220.298

>  <SCORE.INTER>
-9.37626

>  <SCORE.INTER.CONST>
1

>  <SCORE.INTER.POLAR>
-0.661973

>  <SCORE.INTER.REPUL>
0.207374

>  <SCORE.INTER.ROT>
8

>  <SCORE.INTER.VDW>
-21.5624

>  <SCORE.INTER.norm>
-0.275772

>  <SCORE.INTRA>
-204.239

>  <SCORE.INTRA.DIHEDRAL>
-1.78097

>  <SCORE.INTRA.DIHEDRAL.0>
11.7306

>  <SCORE.INTRA.POLAR>
0

>  <SCORE.INTRA.POLAR.0>
0

>  <SCORE.INTRA.REPUL>
0

>  <SCORE.INTRA.REPUL.0>
0

>  <SCORE.INTRA.VDW>
-203.349

>  <SCORE.INTRA.VDW.0>
203.739

>  <SCORE.INTRA.norm>
-6.00703

>  <SCORE.RESTR>
0

>  <SCORE.RESTR.CAVITY>
0

>  <SCORE.RESTR.norm>
0

>  <SCORE.SYSTEM>
-6.68235

>  <SCORE.SYSTEM.CONST>
0

>  <SCORE.SYSTEM.DIHEDRAL>
9.92659

>  <SCORE.SYSTEM.POLAR>
-4.50753

>  <SCORE.SYSTEM.REPUL>
0.032947

>  <SCORE.SYSTEM.VDW>
3.51524

>  <SCORE.SYSTEM.norm>
-0.19654

>  <SCORE.heavy>
34

>  <SCORE.norm>
-6.47934

$$$$
F0528-0230
  rDOCK(R)          3D
libRbt.so/2013.1/901 2013/11/27
 35 38  0  0  0  0  0  0  0  0999 V2000
  -14.4495   13.4977  -19.6511 C   0  0  0  0  0  0
  -14.6737   13.5813  -18.2447 O   0  0  0  0  0  0
  -15.6442   14.4539  -17.8387 C   0  0  0  0  0  0
  -16.9412   14.0987  -17.4811 C   0  0  0  0  0  0
  -17.8960   15.0880  -17.2403 C   0  0  0  0  0  0
  -17.5608   16.4464  -17.3112 C   0  0  0  0  0  0
  -16.2219   16.7953  -17.5347 C   0  0  0  0  0  0
  -15.2726   15.7993  -17.8025 C   0  0  0  0  0  0
  -18.6778   17.4295  -17.1309 C   0  0  0  0  0  0
  -19.7369   17.0494  -16.6505 O   0  0  0  0  0  0
  -18.4457   18.7209  -17.5380 N   0  0  0  0  0  0
  -19.3749   19.8284  -17.3905 C   0  0  0  0  0  0
  -19.3117   20.5585  -16.0992 C   0  0  0  0  0  0
  -18.3917   21.4662  -15.8351 N   0  0  0  0  0  0
  -18.7770   22.1640  -14.7392 N   0  0  0  0  0  0
  -19.9188   21.6680  -14.3175 C   0  0  0  0  0  0
  -20.8851   22.6896  -13.2855 S   0  0  0  0  0  0
  -22.3815   21.8158  -12.8435 C   0  0  0  0  0  0
  -23.2897   22.6814  -12.0151 C   0  0  0  0  0  0
  -24.5741   23.8160  -12.6944 C   0  0  0  0  0  0
  -25.9045   24.4292  -11.5593 C   0  0  0  0  0  0
  -27.1422   24.6080  -12.0588 F   0  0  0  0  0  0
  -25.7704   24.1336   -9.7599 C   0  0  0  0  0  0
  -24.4165   23.0742   -9.1162 C   0  0  0  0  0  0
  -23.2257   22.3398  -10.2365 C   0  0  0  0  0  0
  -20.1664   20.4514  -15.0052 N   0  0  0  0  0  0
  -21.0321   19.3714  -14.6356 C   0  0  0  0  0  0
  -21.2582   18.7380  -13.4325 C   0  0  0  0  0  0
  -20.7578   19.1610  -12.0956 C   0  0  0  0  0  0
  -22.2138   17.7001  -13.4182 C   0  0  0  0  0  0
  -23.1714   17.5297  -14.4557 C   0  0  0  0  0  0
  -23.1970   18.2836  -15.7383 C   0  0  0  0  0  0
  -24.4485   18.2451  -17.4259 C   0  0  0  0  0  0
  -21.7962   18.8853  -15.6717 C   0  0  0  0  0  0
  -17.7145   18.8690  -18.2138 H   0  0  0  0  0  0
  1  2  1  0  0  0
  2  3  1  0  0  0
  3  4  2  0  0  0
  3  8  1  0  0  0
  4  5  1  0  0  0
  5  6  2  0  0  0
  6  7  1  0  0  0
  6  9  1  0  0  0
  7  8  2  0  0  0
  9 10  2  0  0  0
  9 11  1  0  0  0
 11 12  1  0  0  0
 11 35  1  0  0  0
 12 13  1  0  0  0
 13 14  2  0  0  0
 13 26  1  0  0  0
 14 15  1  0  0  0
 15 16  2  0  0  0
 16 17  1  0  0  0
 16 26  1  0  0  0
 17 18  1  0  0  0
 18 19  1  0  0  0
 19 20  2  0  0  0
 19 25  1  0  0  0
 20 21  1  0  0  0
 21 22  1  0  0  0
 21 23  2  0  0  0
 23 24  1  0  0  0
 24 25  2  0  0  0
 26 27  1  0  0  0
 27 28  2  0  0  0
 27 34  1  0  0  0
 28 29  1  0  0  0
 28 30  1  0  0  0
 30 31  2  0  0  0
 31 32  1  0  0  0
 32 33  1  0  0  0
 32 34  2  0  0  0
M  END
>  <CHROM.0>
-60.67258977,-71.48638423,-2.82978483,-58.91573375,-30.74138760,-58.17273728
-156.81229081,-159.34699274

>  <CHROM.1>
100.26238466,15.87244219,86.85304625,79.52547189,179.83738029,-176.81241124
88.87689936,133.82583185,-20.52879648,19.44836532,-14.90873645,-0.87324441
0.24639061,0.47091960

>  <Name>
F0528-0230

>  <RI>
2.95919e+07

>  <Rbt.Current_Directory>
/home/adria/Escritorio/rDock_CMTR_LC/2pxcA_model/inputs_sah

>  <Rbt.Executable>
rbdock ($Id: //depot/dev/client3/rdock/2013.1/src/exe/rbdock.cxx#4 $)

>  <Rbt.Library>
libRbt.so (2013.1, Build901 2013/11/27)

>  <Rbt.Parameter_File>
/home/adria/Escritorio/rDock_2013.1_src/data/scripts/dock.prm

>  <Rbt.Receptor>
sah_rdock.prm

>  <SCORE>
-223.916

>  <SCORE.INTER>
-12.3355

>  <SCORE.INTER.CONST>
1

>  <SCORE.INTER.POLAR>
0

>  <SCORE.INTER.REPUL>
0

>  <SCORE.INTER.ROT>
8

>  <SCORE.INTER.VDW>
-25.7355

>  <SCORE.INTER.norm>
-0.362809

>  <SCORE.INTRA>
-204.47

>  <SCORE.INTRA.DIHEDRAL>
4.03834

>  <SCORE.INTRA.DIHEDRAL.0>
11.7306

>  <SCORE.INTRA.POLAR>
0

>  <SCORE.INTRA.POLAR.0>
0

>  <SCORE.INTRA.REPUL>
0

>  <SCORE.INTRA.REPUL.0>
0

>  <SCORE.INTRA.VDW>
-206.489

>  <SCORE.INTRA.VDW.0>
203.739

>  <SCORE.INTRA.norm>
-6.01382

>  <SCORE.RESTR>
0

>  <SCORE.RESTR.CAVITY>
0

>  <SCORE.RESTR.norm>
0

>  <SCORE.SYSTEM>
-7.11015

>  <SCORE.SYSTEM.CONST>
0

>  <SCORE.SYSTEM.DIHEDRAL>
9.4574

>  <SCORE.SYSTEM.POLAR>
-4.61928

>  <SCORE.SYSTEM.REPUL>
0.0357212

>  <SCORE.SYSTEM.VDW>
3.68809

>  <SCORE.SYSTEM.norm>
-0.209122

>  <SCORE.heavy>
34

>  <SCORE.norm>
-6.58575

$$$$
