F0580-0570
  rDOCK(R)          3D
libRbt.so/2013.1/901 2013/11/27
 36 40  0  0  0  0  0  0  0  0999 V2000
  -26.5978   18.1173  -11.7721 C   0  0  0  0  0  0
  -25.7673   17.9259  -13.0295 C   0  0  0  0  0  0
  -24.9349   16.8020  -12.8491 O   0  0  0  0  0  0
  -23.9744   16.6311  -14.1880 C   0  0  0  0  0  0
  -24.0418   17.8910  -15.7460 C   0  0  0  0  0  0
  -22.6889   19.0301  -15.9795 C   0  0  0  0  0  0
  -21.4249   19.0209  -14.8765 C   0  0  0  0  0  0
  -21.4586   18.2107  -13.4319 C   0  0  0  0  0  0
  -22.6474   17.0478  -13.0213 C   0  0  0  0  0  0
  -20.1959   19.3180  -15.5232 N   0  3  0  0  0  0
  -19.7613   18.2162  -16.2514 C   0  0  0  0  0  0
  -20.4218   17.2131  -16.5111 O   0  0  0  0  0  0
  -18.4228   18.3278  -16.6502 C   0  0  0  0  0  0
  -17.6453   19.4111  -16.4274 C   0  0  0  0  0  0
  -18.0906   20.5107  -15.7197 N   0  0  0  0  0  0
  -19.3145   20.4225  -15.2698 C   0  0  0  0  0  0
  -19.7004   21.9323  -14.4447 S   0  0  0  0  0  0
  -21.1182   21.6473  -13.3788 C   0  0  0  0  0  0
  -21.5729   23.0036  -12.9543 C   0  0  0  0  0  0
  -21.9101   23.7169  -13.9145 O   0  0  0  0  0  0
  -21.7244   23.2098  -11.4218 N   0  0  0  0  0  0
  -20.1160   24.0105  -10.9915 C   0  0  0  0  0  0
  -20.2373   25.6328  -10.3698 C   0  0  0  0  0  0
  -21.5191   26.2043   -9.2725 C   0  0  0  0  0  0
  -23.2153   25.3877   -9.3134 C   0  0  0  0  0  0
  -23.3840   23.4150   -9.9997 C   0  0  0  0  0  0
  -23.5913   22.6332   -8.5766 C   0  0  0  0  0  0
  -23.6845   21.1527   -8.8733 C   0  0  0  0  0  0
  -16.3747   19.1724  -16.9720 C   0  0  0  0  0  0
  -16.4098   17.8565  -17.4541 C   0  0  0  0  0  0
  -17.6802   17.3740  -17.2615 N   0  0  0  0  0  0
  -18.0183   16.4477  -17.4873 H   0  0  0  0  0  0
  -15.3007   17.2190  -17.9987 C   0  0  0  0  0  0
  -14.1221   17.9605  -18.0718 C   0  0  0  0  0  0
  -14.0640   19.2839  -17.6301 C   0  0  0  0  0  0
  -15.1850   19.9079  -17.0766 C   0  0  0  0  0  0
  1  2  1  0  0  0
  2  3  1  0  0  0
  3  4  1  0  0  0
  4  5  2  0  0  0
  4  9  1  0  0  0
  5  6  1  0  0  0
  6  7  2  0  0  0
  7  8  1  0  0  0
  7 10  1  0  0  0
  8  9  2  0  0  0
 10 11  1  0  0  0
 10 16  1  0  0  0
 11 12  2  0  0  0
 13 11  1  0  0  0
 13 14  1  0  0  0
 13 31  1  0  0  0
 14 15  1  0  0  0
 14 29  1  0  0  0
 15 16  1  0  0  0
 16 17  1  0  0  0
 17 18  1  0  0  0
 18 19  1  0  0  0
 19 20  2  0  0  0
 19 21  1  0  0  0
 21 22  1  0  0  0
 21 26  1  0  0  0
 22 23  1  0  0  0
 23 24  1  0  0  0
 24 25  1  0  0  0
 25 26  1  0  0  0
 26 27  1  0  0  0
 27 28  1  0  0  0
 29 30  1  0  0  0
 29 36  1  0  0  0
 30 31  1  0  0  0
 30 33  1  0  0  0
 31 32  1  0  0  0
 33 34  1  0  0  0
 34 35  1  0  0  0
 35 36  1  0  0  0
M  END
>  <CHROM.0>
39.18960018,-169.91115956,-165.63543713,64.15169804,-28.88777695,60.92686433
81.40994364,-54.34198670

>  <CHROM.1>
-177.30846307,0.90841866,-75.16378657,23.31602211,-167.82903422,60.57661898
96.99969034,-61.45111968,-20.51637547,20.21853647,-14.07233067,2.36471332
0.45548276,0.58790004

>  <Name>
F0580-0570

>  <RI>
4.35633e+07

>  <Rbt.Current_Directory>
/home/adria/Escritorio/rDock_CMTR_LC/2pxcA_model/inputs_sah

>  <Rbt.Executable>
rbdock ($Id: //depot/dev/client3/rdock/2013.1/src/exe/rbdock.cxx#4 $)

>  <Rbt.Library>
libRbt.so (2013.1, Build901 2013/11/27)

>  <Rbt.Parameter_File>
/home/adria/Escritorio/rDock_2013.1_src/data/scripts/dock.prm

>  <Rbt.Receptor>
sah_rdock.prm

>  <SCORE>
-302.635

>  <SCORE.INTER>
-15.3948

>  <SCORE.INTER.CONST>
1

>  <SCORE.INTER.POLAR>
0

>  <SCORE.INTER.REPUL>
0.0466848

>  <SCORE.INTER.ROT>
8

>  <SCORE.INTER.VDW>
-29.0282

>  <SCORE.INTER.norm>
-0.439851

>  <SCORE.INTRA>
-287.706

>  <SCORE.INTRA.DIHEDRAL>
-6.84348

>  <SCORE.INTRA.DIHEDRAL.0>
12.5391

>  <SCORE.INTRA.POLAR>
0

>  <SCORE.INTRA.POLAR.0>
0

>  <SCORE.INTRA.REPUL>
0

>  <SCORE.INTRA.REPUL.0>
0

>  <SCORE.INTRA.VDW>
-284.284

>  <SCORE.INTRA.VDW.0>
281.478

>  <SCORE.INTRA.norm>
-8.22016

>  <SCORE.RESTR>
0.0721728

>  <SCORE.RESTR.CAVITY>
0.0721728

>  <SCORE.RESTR.norm>
0.00206208

>  <SCORE.SYSTEM>
0.393558

>  <SCORE.SYSTEM.CONST>
0

>  <SCORE.SYSTEM.DIHEDRAL>
10.9908

>  <SCORE.SYSTEM.POLAR>
-3.18567

>  <SCORE.SYSTEM.REPUL>
0.126454

>  <SCORE.SYSTEM.VDW>
5.09718

>  <SCORE.SYSTEM.norm>
0.0112445

>  <SCORE.heavy>
35

>  <SCORE.norm>
-8.64671

$$$$
F0580-0570
  rDOCK(R)          3D
libRbt.so/2013.1/901 2013/11/27
 36 40  0  0  0  0  0  0  0  0999 V2000
  -15.5226   16.0525  -17.6698 C   0  0  0  0  0  0
  -16.5915   16.4439  -18.6756 C   0  0  0  0  0  0
  -17.8497   16.3690  -18.0433 O   0  0  0  0  0  0
  -18.0010   17.6515  -17.0056 C   0  0  0  0  0  0
  -19.5702   18.8988  -17.0358 C   0  0  0  0  0  0
  -20.7661   18.7952  -15.7161 C   0  0  0  0  0  0
  -20.5465   17.6453  -14.5145 C   0  0  0  0  0  0
  -19.4383   16.4166  -14.5961 C   0  0  0  0  0  0
  -18.1843   16.3428  -15.7608 C   0  0  0  0  0  0
  -21.0089   18.1352  -13.2642 N   0  3  0  0  0  0
  -22.0851   17.3740  -12.8221 C   0  0  0  0  0  0
  -22.4539   16.2996  -13.2909 O   0  0  0  0  0  0
  -22.7803   17.9841  -11.7697 C   0  0  0  0  0  0
  -22.4166   19.1472  -11.1844 C   0  0  0  0  0  0
  -21.3340   19.8883  -11.6167 N   0  0  0  0  0  0
  -20.6941   19.3898  -12.6415 C   0  0  0  0  0  0
  -19.3333   20.4517  -13.0016 S   0  0  0  0  0  0
  -19.9708   22.1035  -13.3065 C   0  0  0  0  0  0
  -20.4448   22.5956  -11.9799 C   0  0  0  0  0  0
  -19.5094   22.8437  -11.2001 O   0  0  0  0  0  0
  -21.9677   22.8868  -11.8790 N   0  0  0  0  0  0
  -21.9812   24.4970  -10.9733 C   0  0  0  0  0  0
  -22.6401   25.8426  -11.8613 C   0  0  0  0  0  0
  -24.0406   25.7445  -12.9581 C   0  0  0  0  0  0
  -24.4256   24.1248  -13.8377 C   0  0  0  0  0  0
  -23.7734   22.3219  -12.9921 C   0  0  0  0  0  0
  -25.1885   21.7577  -12.3933 C   0  0  0  0  0  0
  -25.9689   21.1584  -13.5424 C   0  0  0  0  0  0
  -23.3353   19.4452  -10.1669 C   0  0  0  0  0  0
  -24.3141   18.4438  -10.2345 C   0  0  0  0  0  0
  -23.9365   17.5548  -11.2097 N   0  0  0  0  0  0
  -24.4437   16.7331  -11.5110 H   0  0  0  0  0  0
  -25.4492   18.4382   -9.4317 C   0  0  0  0  0  0
  -25.5759   19.4806   -8.5144 C   0  0  0  0  0  0
  -24.6020   20.4749   -8.4005 C   0  0  0  0  0  0
  -23.4710   20.4719   -9.2210 C   0  0  0  0  0  0
  1  2  1  0  0  0
  2  3  1  0  0  0
  3  4  1  0  0  0
  4  5  2  0  0  0
  4  9  1  0  0  0
  5  6  1  0  0  0
  6  7  2  0  0  0
  7  8  1  0  0  0
  7 10  1  0  0  0
  8  9  2  0  0  0
 10 11  1  0  0  0
 10 16  1  0  0  0
 11 12  2  0  0  0
 13 11  1  0  0  0
 13 14  1  0  0  0
 13 31  1  0  0  0
 14 15  1  0  0  0
 14 29  1  0  0  0
 15 16  1  0  0  0
 16 17  1  0  0  0
 17 18  1  0  0  0
 18 19  1  0  0  0
 19 20  2  0  0  0
 19 21  1  0  0  0
 21 22  1  0  0  0
 21 26  1  0  0  0
 22 23  1  0  0  0
 23 24  1  0  0  0
 24 25  1  0  0  0
 25 26  1  0  0  0
 26 27  1  0  0  0
 27 28  1  0  0  0
 29 30  1  0  0  0
 29 36  1  0  0  0
 30 31  1  0  0  0
 30 33  1  0  0  0
 31 32  1  0  0  0
 33 34  1  0  0  0
 34 35  1  0  0  0
 35 36  1  0  0  0
M  END
>  <CHROM.0>
39.86257932,67.12367556,-129.70292491,-64.38743064,168.81162296,-60.29908551
81.25035374,-164.19298493

>  <CHROM.1>
73.64421231,127.51083471,115.68196411,127.68660680,70.10321189,70.85579700
-136.24781774,-164.52524048,-21.61269285,19.84811596,-12.93576106,-0.53666665
0.76742350,0.00639141

>  <Name>
F0580-0570

>  <RI>
4.35633e+07

>  <Rbt.Current_Directory>
/home/adria/Escritorio/rDock_CMTR_LC/2pxcA_model/inputs_sah

>  <Rbt.Executable>
rbdock ($Id: //depot/dev/client3/rdock/2013.1/src/exe/rbdock.cxx#4 $)

>  <Rbt.Library>
libRbt.so (2013.1, Build901 2013/11/27)

>  <Rbt.Parameter_File>
/home/adria/Escritorio/rDock_2013.1_src/data/scripts/dock.prm

>  <Rbt.Receptor>
sah_rdock.prm

>  <SCORE>
-292.271

>  <SCORE.INTER>
-9.85954

>  <SCORE.INTER.CONST>
1

>  <SCORE.INTER.POLAR>
0

>  <SCORE.INTER.REPUL>
0.172298

>  <SCORE.INTER.ROT>
8

>  <SCORE.INTER.VDW>
-24.121

>  <SCORE.INTER.norm>
-0.281701

>  <SCORE.INTRA>
-285.235

>  <SCORE.INTRA.DIHEDRAL>
-4.11854

>  <SCORE.INTRA.DIHEDRAL.0>
12.5391

>  <SCORE.INTRA.POLAR>
0

>  <SCORE.INTRA.POLAR.0>
0

>  <SCORE.INTRA.REPUL>
0.588031

>  <SCORE.INTRA.REPUL.0>
0

>  <SCORE.INTRA.VDW>
-286.116

>  <SCORE.INTRA.VDW.0>
281.478

>  <SCORE.INTRA.norm>
-8.14958

>  <SCORE.RESTR>
0.00935151

>  <SCORE.RESTR.CAVITY>
0.00935151

>  <SCORE.RESTR.norm>
0.000267186

>  <SCORE.SYSTEM>
2.81511

>  <SCORE.SYSTEM.CONST>
0

>  <SCORE.SYSTEM.DIHEDRAL>
7.49793

>  <SCORE.SYSTEM.POLAR>
-3.96967

>  <SCORE.SYSTEM.REPUL>
0.123645

>  <SCORE.SYSTEM.VDW>
11.9448

>  <SCORE.SYSTEM.norm>
0.0804317

>  <SCORE.heavy>
35

>  <SCORE.norm>
-8.35059

$$$$
F0580-0570
  rDOCK(R)          3D
libRbt.so/2013.1/901 2013/11/27
 36 40  0  0  0  0  0  0  0  0999 V2000
  -26.5536   18.3639  -11.7410 C   0  0  0  0  0  0
  -25.9207   17.9927  -13.0710 C   0  0  0  0  0  0
  -25.0256   16.9241  -12.8578 O   0  0  0  0  0  0
  -24.1134   16.7134  -14.2245 C   0  0  0  0  0  0
  -24.1506   17.9926  -15.7677 C   0  0  0  0  0  0
  -22.7411   19.0547  -16.0279 C   0  0  0  0  0  0
  -21.4501   18.9606  -14.9608 C   0  0  0  0  0  0
  -21.4910   18.1375  -13.5236 C   0  0  0  0  0  0
  -22.7333   17.0402  -13.0913 C   0  0  0  0  0  0
  -20.2241   19.1939  -15.6386 N   0  3  0  0  0  0
  -19.8717   18.0757  -16.3858 C   0  0  0  0  0  0
  -20.5941   17.1132  -16.6343 O   0  0  0  0  0  0
  -18.5401   18.1157  -16.8201 C   0  0  0  0  0  0
  -17.6974   19.1519  -16.6111 C   0  0  0  0  0  0
  -18.0613   20.2688  -15.8841 N   0  0  0  0  0  0
  -19.2757   20.2454  -15.4017 C   0  0  0  0  0  0
  -19.5542   21.7674  -14.5561 S   0  0  0  0  0  0
  -20.6207   21.4441  -13.1470 C   0  0  0  0  0  0
  -21.2107   22.7662  -12.7860 C   0  0  0  0  0  0
  -21.4675   23.4632  -13.7824 O   0  0  0  0  0  0
  -21.5687   22.9524  -11.2855 N   0  0  0  0  0  0
  -20.2085   24.0630  -10.7115 C   0  0  0  0  0  0
  -20.7167   25.6339  -10.1575 C   0  0  0  0  0  0
  -22.1998   25.9474   -9.2216 C   0  0  0  0  0  0
  -23.6855   24.8072   -9.4175 C   0  0  0  0  0  0
  -23.3831   22.8344  -10.0556 C   0  0  0  0  0  0
  -23.5878   22.0403   -8.6388 C   0  0  0  0  0  0
  -23.2848   20.5783   -8.8819 C   0  0  0  0  0  0
  -16.4572   18.8472  -17.1917 C   0  0  0  0  0  0
  -16.5790   17.5393  -17.6816 C   0  0  0  0  0  0
  -17.8688   17.1270  -17.4578 N   0  0  0  0  0  0
  -18.2643   16.2230  -17.6806 H   0  0  0  0  0  0
  -15.5223   16.8454  -18.2604 C   0  0  0  0  0  0
  -14.3064   17.5205  -18.3605 C   0  0  0  0  0  0
  -14.1624   18.8349  -17.9115 C   0  0  0  0  0  0
  -15.2314   19.5159  -17.3236 C   0  0  0  0  0  0
  1  2  1  0  0  0
  2  3  1  0  0  0
  3  4  1  0  0  0
  4  5  2  0  0  0
  4  9  1  0  0  0
  5  6  1  0  0  0
  6  7  2  0  0  0
  7  8  1  0  0  0
  7 10  1  0  0  0
  8  9  2  0  0  0
 10 11  1  0  0  0
 10 16  1  0  0  0
 11 12  2  0  0  0
 13 11  1  0  0  0
 13 14  1  0  0  0
 13 31  1  0  0  0
 14 15  1  0  0  0
 14 29  1  0  0  0
 15 16  1  0  0  0
 16 17  1  0  0  0
 17 18  1  0  0  0
 18 19  1  0  0  0
 19 20  2  0  0  0
 19 21  1  0  0  0
 21 22  1  0  0  0
 21 26  1  0  0  0
 22 23  1  0  0  0
 23 24  1  0  0  0
 24 25  1  0  0  0
 25 26  1  0  0  0
 26 27  1  0  0  0
 27 28  1  0  0  0
 29 30  1  0  0  0
 29 36  1  0  0  0
 30 31  1  0  0  0
 30 33  1  0  0  0
 31 32  1  0  0  0
 33 34  1  0  0  0
 34 35  1  0  0  0
 35 36  1  0  0  0
M  END
>  <CHROM.0>
-159.79111448,-165.93552990,-2.18131486,-58.14940442,-32.23425916,-169.89089557
84.29778970,-158.27077755

>  <CHROM.1>
-168.80105895,8.41317058,-75.35523991,39.09270086,-159.97202033,37.18931708
105.05068777,-58.66401817,-20.55845531,20.02077246,-14.13695120,2.34463883
0.45626267,0.61440067

>  <Name>
F0580-0570

>  <RI>
4.35633e+07

>  <Rbt.Current_Directory>
/home/adria/Escritorio/rDock_CMTR_LC/2pxcA_model/inputs_sah

>  <Rbt.Executable>
rbdock ($Id: //depot/dev/client3/rdock/2013.1/src/exe/rbdock.cxx#4 $)

>  <Rbt.Library>
libRbt.so (2013.1, Build901 2013/11/27)

>  <Rbt.Parameter_File>
/home/adria/Escritorio/rDock_2013.1_src/data/scripts/dock.prm

>  <Rbt.Receptor>
sah_rdock.prm

>  <SCORE>
-305.36

>  <SCORE.INTER>
-14.8773

>  <SCORE.INTER.CONST>
1

>  <SCORE.INTER.POLAR>
0

>  <SCORE.INTER.REPUL>
0.103345

>  <SCORE.INTER.ROT>
8

>  <SCORE.INTER.VDW>
-28.794

>  <SCORE.INTER.norm>
-0.425066

>  <SCORE.INTRA>
-286.465

>  <SCORE.INTRA.DIHEDRAL>
-5.92501

>  <SCORE.INTRA.DIHEDRAL.0>
12.5391

>  <SCORE.INTRA.POLAR>
0

>  <SCORE.INTRA.POLAR.0>
0

>  <SCORE.INTRA.REPUL>
0

>  <SCORE.INTRA.REPUL.0>
0

>  <SCORE.INTRA.VDW>
-283.502

>  <SCORE.INTRA.VDW.0>
281.478

>  <SCORE.INTRA.norm>
-8.18471

>  <SCORE.RESTR>
0

>  <SCORE.RESTR.CAVITY>
0

>  <SCORE.RESTR.norm>
0

>  <SCORE.SYSTEM>
-4.0178

>  <SCORE.SYSTEM.CONST>
0

>  <SCORE.SYSTEM.DIHEDRAL>
11.7274

>  <SCORE.SYSTEM.POLAR>
-4.22278

>  <SCORE.SYSTEM.VDW>
4.47594

>  <SCORE.SYSTEM.norm>
-0.114794

>  <SCORE.heavy>
35

>  <SCORE.norm>
-8.72457

$$$$
F0580-0570
  rDOCK(R)          3D
libRbt.so/2013.1/901 2013/11/27
 36 40  0  0  0  0  0  0  0  0999 V2000
  -16.0116   16.3104  -18.1711 C   0  0  0  0  0  0
  -17.0911   17.3607  -17.9743 C   0  0  0  0  0  0
  -16.6363   18.2971  -17.0231 O   0  0  0  0  0  0
  -17.7484   19.5193  -16.9058 C   0  0  0  0  0  0
  -19.7260   19.2074  -17.0109 C   0  0  0  0  0  0
  -20.6908   19.3459  -15.5168 C   0  0  0  0  0  0
  -19.9065   19.7079  -14.0787 C   0  0  0  0  0  0
  -18.2609   19.6913  -13.8885 C   0  0  0  0  0  0
  -17.1537   19.6024  -15.1926 C   0  0  0  0  0  0
  -20.7337   20.5080  -13.2466 N   0  3  0  0  0  0
  -20.5316   21.8548  -13.5264 C   0  0  0  0  0  0
  -19.9224   22.3109  -14.4911 O   0  0  0  0  0  0
  -21.0700   22.6959  -12.5436 C   0  0  0  0  0  0
  -21.7770   22.2684  -11.4734 C   0  0  0  0  0  0
  -21.9905   20.9288  -11.2126 N   0  0  0  0  0  0
  -21.4482   20.1036  -12.0688 C   0  0  0  0  0  0
  -21.8744   18.4620  -11.5864 S   0  0  0  0  0  0
  -22.5861   17.6225  -13.0063 C   0  0  0  0  0  0
  -23.5992   18.5688  -13.5585 C   0  0  0  0  0  0
  -23.5922   18.6050  -14.8007 O   0  0  0  0  0  0
  -24.5842   19.1753  -12.5212 N   0  0  0  0  0  0
  -25.3384   17.6561  -11.7889 C   0  0  0  0  0  0
  -25.0255   17.4157  -10.0926 C   0  0  0  0  0  0
  -24.9686   18.7180   -8.8782 C   0  0  0  0  0  0
  -24.4709   20.4579   -9.3982 C   0  0  0  0  0  0
  -24.7491   21.0489  -11.3892 C   0  0  0  0  0  0
  -26.0632   22.0104  -11.2219 C   0  0  0  0  0  0
  -26.4758   22.4714  -12.6025 C   0  0  0  0  0  0
  -22.1632   23.3836  -10.7150 C   0  0  0  0  0  0
  -21.5753   24.4909  -11.3423 C   0  0  0  0  0  0
  -20.9311   24.0411  -12.4677 N   0  0  0  0  0  0
  -20.3954   24.5955  -13.1227 H   0  0  0  0  0  0
  -21.6606   25.7828  -10.8354 C   0  0  0  0  0  0
  -22.3899   25.9499   -9.6588 C   0  0  0  0  0  0
  -23.0144   24.8718   -9.0282 C   0  0  0  0  0  0
  -22.9120   23.5777   -9.5450 C   0  0  0  0  0  0
  1  2  1  0  0  0
  2  3  1  0  0  0
  3  4  1  0  0  0
  4  5  2  0  0  0
  4  9  1  0  0  0
  5  6  1  0  0  0
  6  7  2  0  0  0
  7  8  1  0  0  0
  7 10  1  0  0  0
  8  9  2  0  0  0
 10 11  1  0  0  0
 10 16  1  0  0  0
 11 12  2  0  0  0
 13 11  1  0  0  0
 13 14  1  0  0  0
 13 31  1  0  0  0
 14 15  1  0  0  0
 14 29  1  0  0  0
 15 16  1  0  0  0
 16 17  1  0  0  0
 17 18  1  0  0  0
 18 19  1  0  0  0
 19 20  2  0  0  0
 19 21  1  0  0  0
 21 22  1  0  0  0
 21 26  1  0  0  0
 22 23  1  0  0  0
 23 24  1  0  0  0
 24 25  1  0  0  0
 25 26  1  0  0  0
 26 27  1  0  0  0
 27 28  1  0  0  0
 29 30  1  0  0  0
 29 36  1  0  0  0
 30 31  1  0  0  0
 30 33  1  0  0  0
 31 32  1  0  0  0
 33 34  1  0  0  0
 34 35  1  0  0  0
 35 36  1  0  0  0
M  END
>  <CHROM.0>
-61.24571974,60.96950659,-9.32716341,-63.49676865,-31.33380936,-57.90087136
-37.47986668,-163.24883450

>  <CHROM.1>
174.89381766,37.39704835,-88.94886722,-47.40754426,-48.13057060,139.04541285
-57.24063167,-59.87504458,-21.69614404,20.59988417,-12.78593805,0.70832558
-0.59482011,-2.73552065

>  <Name>
F0580-0570

>  <RI>
4.35633e+07

>  <Rbt.Current_Directory>
/home/adria/Escritorio/rDock_CMTR_LC/2pxcA_model/inputs_sah

>  <Rbt.Executable>
rbdock ($Id: //depot/dev/client3/rdock/2013.1/src/exe/rbdock.cxx#4 $)

>  <Rbt.Library>
libRbt.so (2013.1, Build901 2013/11/27)

>  <Rbt.Parameter_File>
/home/adria/Escritorio/rDock_2013.1_src/data/scripts/dock.prm

>  <Rbt.Receptor>
sah_rdock.prm

>  <SCORE>
-307.235

>  <SCORE.INTER>
-9.81196

>  <SCORE.INTER.CONST>
1

>  <SCORE.INTER.POLAR>
0

>  <SCORE.INTER.REPUL>
0

>  <SCORE.INTER.ROT>
8

>  <SCORE.INTER.VDW>
-23.212

>  <SCORE.INTER.norm>
-0.280342

>  <SCORE.INTRA>
-290.641

>  <SCORE.INTRA.DIHEDRAL>
-7.05208

>  <SCORE.INTRA.DIHEDRAL.0>
12.5391

>  <SCORE.INTRA.POLAR>
0

>  <SCORE.INTRA.POLAR.0>
0

>  <SCORE.INTRA.REPUL>
0

>  <SCORE.INTRA.REPUL.0>
0

>  <SCORE.INTRA.VDW>
-287.115

>  <SCORE.INTRA.VDW.0>
281.478

>  <SCORE.INTRA.norm>
-8.30404

>  <SCORE.RESTR>
0.00299846

>  <SCORE.RESTR.CAVITY>
0.00299846

>  <SCORE.RESTR.norm>
8.56702e-05

>  <SCORE.SYSTEM>
-6.78422

>  <SCORE.SYSTEM.CONST>
0

>  <SCORE.SYSTEM.DIHEDRAL>
8.33349

>  <SCORE.SYSTEM.POLAR>
-4.27119

>  <SCORE.SYSTEM.VDW>
3.57109

>  <SCORE.SYSTEM.norm>
-0.193835

>  <SCORE.heavy>
35

>  <SCORE.norm>
-8.77813

$$$$
F0580-0570
  rDOCK(R)          3D
libRbt.so/2013.1/901 2013/11/27
 36 40  0  0  0  0  0  0  0  0999 V2000
  -26.5706   18.4414  -13.2497 C   0  0  0  0  0  0
  -25.4487   18.2252  -12.2488 C   0  0  0  0  0  0
  -24.9829   16.9005  -12.3780 O   0  0  0  0  0  0
  -24.0600   16.7924  -13.7495 C   0  0  0  0  0  0
  -24.1695   18.1234  -15.2447 C   0  0  0  0  0  0
  -22.8225   19.2726  -15.4624 C   0  0  0  0  0  0
  -21.5285   19.2126  -14.3965 C   0  0  0  0  0  0
  -21.5228   18.3361  -12.9907 C   0  0  0  0  0  0
  -22.7009   17.1549  -12.6019 C   0  0  0  0  0  0
  -20.3175   19.5400  -15.0625 N   0  3  0  0  0  0
  -19.8211   18.4236  -15.7260 C   0  0  0  0  0  0
  -20.4239   17.3714  -15.9250 O   0  0  0  0  0  0
  -18.4906   18.5867  -16.1340 C   0  0  0  0  0  0
  -17.7755   19.7232  -15.9768 C   0  0  0  0  0  0
  -18.2825   20.8356  -15.3336 N   0  0  0  0  0  0
  -19.4999   20.7053  -14.8763 C   0  0  0  0  0  0
  -19.9708   22.2366  -14.1400 S   0  0  0  0  0  0
  -20.2120   21.9670  -12.3802 C   0  0  0  0  0  0
  -20.6402   23.2874  -11.8328 C   0  0  0  0  0  0
  -19.7467   24.1480  -11.9067 O   0  0  0  0  0  0
  -22.1439   23.4011  -11.4583 N   0  0  0  0  0  0
  -22.7303   24.6843  -12.6510 C   0  0  0  0  0  0
  -23.9249   24.1423  -13.7966 C   0  0  0  0  0  0
  -25.2438   23.0043  -13.4234 C   0  0  0  0  0  0
  -25.0171   21.7287  -12.0571 C   0  0  0  0  0  0
  -23.6511   22.1135  -10.5154 C   0  0  0  0  0  0
  -24.6850   22.4955   -9.3051 C   0  0  0  0  0  0
  -25.3260   23.8221   -9.6480 C   0  0  0  0  0  0
  -16.4930   19.5248  -16.5096 C   0  0  0  0  0  0
  -16.4536   18.1830  -16.9138 C   0  0  0  0  0  0
  -17.6951   17.6421  -16.6902 N   0  0  0  0  0  0
  -17.9803   16.6866  -16.8606 H   0  0  0  0  0  0
  -15.3099   17.5782  -17.4229 C   0  0  0  0  0  0
  -14.1748   18.3791  -17.5421 C   0  0  0  0  0  0
  -14.1917   19.7274  -17.1787 C   0  0  0  0  0  0
  -15.3465   20.3187  -16.6600 C   0  0  0  0  0  0
  1  2  1  0  0  0
  2  3  1  0  0  0
  3  4  1  0  0  0
  4  5  2  0  0  0
  4  9  1  0  0  0
  5  6  1  0  0  0
  6  7  2  0  0  0
  7  8  1  0  0  0
  7 10  1  0  0  0
  8  9  2  0  0  0
 10 11  1  0  0  0
 10 16  1  0  0  0
 11 12  2  0  0  0
 13 11  1  0  0  0
 13 14  1  0  0  0
 13 31  1  0  0  0
 14 15  1  0  0  0
 14 29  1  0  0  0
 15 16  1  0  0  0
 16 17  1  0  0  0
 17 18  1  0  0  0
 18 19  1  0  0  0
 19 20  2  0  0  0
 19 21  1  0  0  0
 21 22  1  0  0  0
 21 26  1  0  0  0
 22 23  1  0  0  0
 23 24  1  0  0  0
 24 25  1  0  0  0
 25 26  1  0  0  0
 26 27  1  0  0  0
 27 28  1  0  0  0
 29 30  1  0  0  0
 29 36  1  0  0  0
 30 31  1  0  0  0
 30 33  1  0  0  0
 31 32  1  0  0  0
 33 34  1  0  0  0
 34 35  1  0  0  0
 35 36  1  0  0  0
M  END
>  <CHROM.0>
-178.21259069,-168.80219735,-164.71866458,64.91061091,167.86033465,179.69410614
-34.40700654,-165.87070292

>  <CHROM.1>
75.38031904,-19.75952996,-82.17567808,69.66369610,-178.57377446,-66.09646272
-115.58696656,47.46906287,-20.88834974,20.26744984,-14.07509971,2.67580110
0.40290587,0.41035933

>  <Name>
F0580-0570

>  <RI>
4.35633e+07

>  <Rbt.Current_Directory>
/home/adria/Escritorio/rDock_CMTR_LC/2pxcA_model/inputs_sah

>  <Rbt.Executable>
rbdock ($Id: //depot/dev/client3/rdock/2013.1/src/exe/rbdock.cxx#4 $)

>  <Rbt.Library>
libRbt.so (2013.1, Build901 2013/11/27)

>  <Rbt.Parameter_File>
/home/adria/Escritorio/rDock_2013.1_src/data/scripts/dock.prm

>  <Rbt.Receptor>
sah_rdock.prm

>  <SCORE>
-299.609

>  <SCORE.INTER>
-12.7296

>  <SCORE.INTER.CONST>
1

>  <SCORE.INTER.POLAR>
0

>  <SCORE.INTER.REPUL>
0.296457

>  <SCORE.INTER.ROT>
8

>  <SCORE.INTER.VDW>
-27.6119

>  <SCORE.INTER.norm>
-0.363703

>  <SCORE.INTRA>
-286.102

>  <SCORE.INTRA.DIHEDRAL>
-4.33125

>  <SCORE.INTRA.DIHEDRAL.0>
12.5391

>  <SCORE.INTRA.POLAR>
0

>  <SCORE.INTRA.POLAR.0>
0

>  <SCORE.INTRA.REPUL>
0

>  <SCORE.INTRA.REPUL.0>
0

>  <SCORE.INTRA.VDW>
-283.936

>  <SCORE.INTRA.VDW.0>
281.478

>  <SCORE.INTRA.norm>
-8.17434

>  <SCORE.RESTR>
0

>  <SCORE.RESTR.CAVITY>
0

>  <SCORE.RESTR.norm>
0

>  <SCORE.SYSTEM>
-0.77813

>  <SCORE.SYSTEM.CONST>
0

>  <SCORE.SYSTEM.DIHEDRAL>
3.65912

>  <SCORE.SYSTEM.POLAR>
-3.54377

>  <SCORE.SYSTEM.VDW>
9.44114

>  <SCORE.SYSTEM.norm>
-0.0222323

>  <SCORE.heavy>
35

>  <SCORE.norm>
-8.56027

$$$$
F0580-0570
  rDOCK(R)          3D
libRbt.so/2013.1/901 2013/11/27
 36 40  0  0  0  0  0  0  0  0999 V2000
  -14.7596   16.4134  -18.5837 C   0  0  0  0  0  0
  -15.6439   17.6459  -18.5049 C   0  0  0  0  0  0
  -15.3037   18.3671  -17.3420 O   0  0  0  0  0  0
  -16.3113   19.6759  -17.2137 C   0  0  0  0  0  0
  -18.1657   19.7025  -17.9750 C   0  0  0  0  0  0
  -19.5489   19.6107  -16.8521 C   0  0  0  0  0  0
  -19.2473   19.4820  -15.2069 C   0  0  0  0  0  0
  -17.7555   19.1701  -14.5576 C   0  0  0  0  0  0
  -16.2957   19.2408  -15.4512 C   0  0  0  0  0  0
  -20.2438   20.1665  -14.4617 N   0  3  0  0  0  0
  -19.8501   21.4801  -14.2325 C   0  0  0  0  0  0
  -18.9108   22.0597  -14.7726 O   0  0  0  0  0  0
  -20.6253   22.1114  -13.2507 C   0  0  0  0  0  0
  -21.6900   21.5485  -12.6367 C   0  0  0  0  0  0
  -22.0873   20.2488  -12.8842 N   0  0  0  0  0  0
  -21.3509   19.5981  -13.7459 C   0  0  0  0  0  0
  -22.0479   17.9917  -13.9529 S   0  0  0  0  0  0
  -21.0726   17.1057  -15.1742 C   0  0  0  0  0  0
  -19.9176   16.5362  -14.4205 C   0  0  0  0  0  0
  -19.8080   17.0162  -13.2794 O   0  0  0  0  0  0
  -19.1971   15.3404  -15.1027 N   0  0  0  0  0  0
  -18.0715   16.2068  -16.2840 C   0  0  0  0  0  0
  -16.3700   15.9746  -15.9940 C   0  0  0  0  0  0
  -15.6333   14.4444  -15.4560 C   0  0  0  0  0  0
  -16.6460   13.2296  -14.4341 C   0  0  0  0  0  0
  -18.7356   13.2569  -14.5884 C   0  0  0  0  0  0
  -18.9730   11.9193  -15.5017 C   0  0  0  0  0  0
  -18.4117   12.1960  -16.8790 C   0  0  0  0  0  0
  -22.2234   22.4717  -11.7251 C   0  0  0  0  0  0
  -21.3682   23.5818  -11.7654 C   0  0  0  0  0  0
  -20.4135   23.3401  -12.7213 N   0  0  0  0  0  0
  -19.6420   23.9433  -12.9746 H   0  0  0  0  0  0
  -21.5191   24.6853  -10.9331 C   0  0  0  0  0  0
  -22.5938   24.6610  -10.0451 C   0  0  0  0  0  0
  -23.4821   23.5843  -10.0039 C   0  0  0  0  0  0
  -23.3118   22.4782  -10.8405 C   0  0  0  0  0  0
  1  2  1  0  0  0
  2  3  1  0  0  0
  3  4  1  0  0  0
  4  5  2  0  0  0
  4  9  1  0  0  0
  5  6  1  0  0  0
  6  7  2  0  0  0
  7  8  1  0  0  0
  7 10  1  0  0  0
  8  9  2  0  0  0
 10 11  1  0  0  0
 10 16  1  0  0  0
 11 12  2  0  0  0
 13 11  1  0  0  0
 13 14  1  0  0  0
 13 31  1  0  0  0
 14 15  1  0  0  0
 14 29  1  0  0  0
 15 16  1  0  0  0
 16 17  1  0  0  0
 17 18  1  0  0  0
 18 19  1  0  0  0
 19 20  2  0  0  0
 19 21  1  0  0  0
 21 22  1  0  0  0
 21 26  1  0  0  0
 22 23  1  0  0  0
 23 24  1  0  0  0
 24 25  1  0  0  0
 25 26  1  0  0  0
 26 27  1  0  0  0
 27 28  1  0  0  0
 29 30  1  0  0  0
 29 36  1  0  0  0
 30 31  1  0  0  0
 30 33  1  0  0  0
 31 32  1  0  0  0
 33 34  1  0  0  0
 34 35  1  0  0  0
 35 36  1  0  0  0
M  END
>  <CHROM.0>
-56.32402890,68.87580120,-8.06545043,62.77615824,169.14712522,-59.21407866
-157.19950116,-73.37044771

>  <CHROM.1>
-177.44974649,27.63061401,-91.26986633,3.22316166,83.67072935,-12.57268481
82.35482012,48.69686521,-19.42991976,18.86176468,-14.46993171,-0.92017575
0.68203822,0.08757688

>  <Name>
F0580-0570

>  <RI>
4.35633e+07

>  <Rbt.Current_Directory>
/home/adria/Escritorio/rDock_CMTR_LC/2pxcA_model/inputs_sah

>  <Rbt.Executable>
rbdock ($Id: //depot/dev/client3/rdock/2013.1/src/exe/rbdock.cxx#4 $)

>  <Rbt.Library>
libRbt.so (2013.1, Build901 2013/11/27)

>  <Rbt.Parameter_File>
/home/adria/Escritorio/rDock_2013.1_src/data/scripts/dock.prm

>  <Rbt.Receptor>
sah_rdock.prm

>  <SCORE>
-293.908

>  <SCORE.INTER>
-9.31961

>  <SCORE.INTER.CONST>
1

>  <SCORE.INTER.POLAR>
-0.926987

>  <SCORE.INTER.REPUL>
0.136052

>  <SCORE.INTER.ROT>
8

>  <SCORE.INTER.VDW>
-20.2481

>  <SCORE.INTER.norm>
-0.266275

>  <SCORE.INTRA>
-285.134

>  <SCORE.INTRA.DIHEDRAL>
-6.50629

>  <SCORE.INTRA.DIHEDRAL.0>
12.5391

>  <SCORE.INTRA.POLAR>
0

>  <SCORE.INTRA.POLAR.0>
0

>  <SCORE.INTRA.REPUL>
0

>  <SCORE.INTRA.REPUL.0>
0

>  <SCORE.INTRA.VDW>
-281.881

>  <SCORE.INTRA.VDW.0>
281.478

>  <SCORE.INTRA.norm>
-8.14669

>  <SCORE.RESTR>
0

>  <SCORE.RESTR.CAVITY>
0

>  <SCORE.RESTR.norm>
0

>  <SCORE.SYSTEM>
0.545503

>  <SCORE.SYSTEM.CONST>
0

>  <SCORE.SYSTEM.DIHEDRAL>
10.0383

>  <SCORE.SYSTEM.POLAR>
-3.89397

>  <SCORE.SYSTEM.VDW>
8.76584

>  <SCORE.SYSTEM.norm>
0.0155858

>  <SCORE.heavy>
35

>  <SCORE.norm>
-8.39738

$$$$
F0580-0570
  rDOCK(R)          3D
libRbt.so/2013.1/901 2013/11/27
 36 40  0  0  0  0  0  0  0  0999 V2000
  -20.8790   25.0624   -9.7290 C   0  0  0  0  0  0
  -21.2647   25.1101  -11.1974 C   0  0  0  0  0  0
  -21.8160   23.8628  -11.5560 O   0  0  0  0  0  0
  -20.6264   22.7125  -11.4764 C   0  0  0  0  0  0
  -20.9971   20.7887  -11.0514 C   0  0  0  0  0  0
  -20.8787   19.5879  -12.3653 C   0  0  0  0  0  0
  -20.4856   20.1147  -13.9088 C   0  0  0  0  0  0
  -20.4526   21.7065  -14.3667 C   0  0  0  0  0  0
  -20.5161   23.0150  -13.2630 C   0  0  0  0  0  0
  -19.7056   19.1397  -14.5855 N   0  3  0  0  0  0
  -18.3626   19.4981  -14.5550 C   0  0  0  0  0  0
  -17.8640   20.3820  -13.8621 O   0  0  0  0  0  0
  -17.5873   18.7599  -15.4591 C   0  0  0  0  0  0
  -18.0596   17.7546  -16.2298 C   0  0  0  0  0  0
  -19.3922   17.3911  -16.2401 N   0  0  0  0  0  0
  -20.1662   18.0984  -15.4599 C   0  0  0  0  0  0
  -21.8011   17.4496  -15.5831 S   0  0  0  0  0  0
  -22.7690   18.5499  -16.6223 C   0  0  0  0  0  0
  -24.1767   18.0692  -16.5042 C   0  0  0  0  0  0
  -24.5145   17.3417  -17.4535 O   0  0  0  0  0  0
  -24.8845   18.3940  -15.1597 N   0  0  0  0  0  0
  -24.7137   16.7945  -14.2512 C   0  0  0  0  0  0
  -23.7604   16.8659  -12.7954 C   0  0  0  0  0  0
  -23.7677   18.2262  -11.6451 C   0  0  0  0  0  0
  -24.1665   19.9623  -12.2553 C   0  0  0  0  0  0
  -25.3231   20.1970  -13.9868 C   0  0  0  0  0  0
  -26.7507   20.6403  -13.3199 C   0  0  0  0  0  0
  -27.3029   19.4445  -12.5757 C   0  0  0  0  0  0
  -17.0033   17.2428  -16.9983 C   0  0  0  0  0  0
  -15.8965   18.0531  -16.7088 C   0  0  0  0  0  0
  -16.2793   18.9577  -15.7502 N   0  0  0  0  0  0
  -15.7110   19.6903  -15.3458 H   0  0  0  0  0  0
  -14.6672   17.9115  -17.3429 C   0  0  0  0  0  0
  -14.5612   16.8929  -18.2891 C   0  0  0  0  0  0
  -15.6359   16.0485  -18.5757 C   0  0  0  0  0  0
  -16.8680   16.2092  -17.9366 C   0  0  0  0  0  0
  1  2  1  0  0  0
  2  3  1  0  0  0
  3  4  1  0  0  0
  4  5  2  0  0  0
  4  9  1  0  0  0
  5  6  1  0  0  0
  6  7  2  0  0  0
  7  8  1  0  0  0
  7 10  1  0  0  0
  8  9  2  0  0  0
 10 11  1  0  0  0
 10 16  1  0  0  0
 11 12  2  0  0  0
 13 11  1  0  0  0
 13 14  1  0  0  0
 13 31  1  0  0  0
 14 15  1  0  0  0
 14 29  1  0  0  0
 15 16  1  0  0  0
 16 17  1  0  0  0
 17 18  1  0  0  0
 18 19  1  0  0  0
 19 20  2  0  0  0
 19 21  1  0  0  0
 21 22  1  0  0  0
 21 26  1  0  0  0
 22 23  1  0  0  0
 23 24  1  0  0  0
 24 25  1  0  0  0
 25 26  1  0  0  0
 26 27  1  0  0  0
 27 28  1  0  0  0
 29 30  1  0  0  0
 29 36  1  0  0  0
 30 31  1  0  0  0
 30 33  1  0  0  0
 31 32  1  0  0  0
 33 34  1  0  0  0
 34 35  1  0  0  0
 35 36  1  0  0  0
M  END
>  <CHROM.0>
-179.38904234,-170.86526307,110.00275723,64.16071071,-29.67935664,58.62512989
-38.17781819,-159.13414849

>  <CHROM.1>
-66.89216650,150.62204749,-100.91438765,81.61887807,-171.12952286,-98.25784181
-99.34269051,48.23051210,-20.75175012,19.26392248,-14.57291337,-2.51513849
-0.18175999,-2.45667839

>  <Name>
F0580-0570

>  <RI>
4.35633e+07

>  <Rbt.Current_Directory>
/home/adria/Escritorio/rDock_CMTR_LC/2pxcA_model/inputs_sah

>  <Rbt.Executable>
rbdock ($Id: //depot/dev/client3/rdock/2013.1/src/exe/rbdock.cxx#4 $)

>  <Rbt.Library>
libRbt.so (2013.1, Build901 2013/11/27)

>  <Rbt.Parameter_File>
/home/adria/Escritorio/rDock_2013.1_src/data/scripts/dock.prm

>  <Rbt.Receptor>
sah_rdock.prm

>  <SCORE>
-303.79

>  <SCORE.INTER>
-11.2039

>  <SCORE.INTER.CONST>
1

>  <SCORE.INTER.POLAR>
0

>  <SCORE.INTER.REPUL>
0.02298

>  <SCORE.INTER.ROT>
8

>  <SCORE.INTER.VDW>
-24.7188

>  <SCORE.INTER.norm>
-0.320111

>  <SCORE.INTRA>
-286.857

>  <SCORE.INTRA.DIHEDRAL>
-5.17167

>  <SCORE.INTRA.DIHEDRAL.0>
12.5391

>  <SCORE.INTRA.POLAR>
0

>  <SCORE.INTRA.POLAR.0>
0

>  <SCORE.INTRA.REPUL>
0

>  <SCORE.INTRA.REPUL.0>
0

>  <SCORE.INTRA.VDW>
-284.271

>  <SCORE.INTRA.VDW.0>
281.478

>  <SCORE.INTRA.norm>
-8.19591

>  <SCORE.RESTR>
0

>  <SCORE.RESTR.CAVITY>
0

>  <SCORE.RESTR.norm>
0

>  <SCORE.SYSTEM>
-5.72943

>  <SCORE.SYSTEM.CONST>
0

>  <SCORE.SYSTEM.DIHEDRAL>
9.17669

>  <SCORE.SYSTEM.POLAR>
-4.23687

>  <SCORE.SYSTEM.VDW>
4.08759

>  <SCORE.SYSTEM.norm>
-0.163698

>  <SCORE.heavy>
35

>  <SCORE.norm>
-8.67971

$$$$
F0580-0570
  rDOCK(R)          3D
libRbt.so/2013.1/901 2013/11/27
 36 40  0  0  0  0  0  0  0  0999 V2000
  -25.1932   18.4314   -9.2508 C   0  0  0  0  0  0
  -25.0050   17.4103  -10.3595 C   0  0  0  0  0  0
  -25.0568   18.0809  -11.5989 O   0  0  0  0  0  0
  -23.7292   19.0633  -11.7282 C   0  0  0  0  0  0
  -21.9194   18.5464  -11.0379 C   0  0  0  0  0  0
  -20.6492   18.1179  -12.2150 C   0  0  0  0  0  0
  -21.0219   18.1405  -13.8505 C   0  0  0  0  0  0
  -22.5597   18.2788  -14.4509 C   0  0  0  0  0  0
  -23.9158   18.7169  -13.5005 C   0  0  0  0  0  0
  -19.8962   18.5501  -14.6134 N   0  3  0  0  0  0
  -19.7082   17.6874  -15.6873 C   0  0  0  0  0  0
  -20.5037   16.8382  -16.0825 O   0  0  0  0  0  0
  -18.4524   17.8421  -16.2893 C   0  0  0  0  0  0
  -17.5402   18.7726  -15.9292 C   0  0  0  0  0  0
  -17.7425   19.6398  -14.8731 N   0  0  0  0  0  0
  -18.8748   19.4868  -14.2386 C   0  0  0  0  0  0
  -18.9564   20.7085  -12.9699 S   0  0  0  0  0  0
  -20.4247   21.7075  -13.2409 C   0  0  0  0  0  0
  -20.6926   22.3791  -11.9356 C   0  0  0  0  0  0
  -19.6885   22.4209  -11.2046 O   0  0  0  0  0  0
  -22.0838   23.0588  -11.8054 N   0  0  0  0  0  0
  -21.7122   24.4533  -10.6520 C   0  0  0  0  0  0
  -21.9344   26.0470  -11.3183 C   0  0  0  0  0  0
  -23.2474   26.5059  -12.4315 C   0  0  0  0  0  0
  -24.0062   25.2079  -13.5651 C   0  0  0  0  0  0
  -23.9113   23.1883  -13.0146 C   0  0  0  0  0  0
  -25.4567   22.9505  -12.5300 C   0  0  0  0  0  0
  -25.5589   21.5406  -11.9910 C   0  0  0  0  0  0
  -16.4121   18.6385  -16.7523 C   0  0  0  0  0  0
  -16.6649   17.5235  -17.5635 C   0  0  0  0  0  0
  -17.9273   17.0711  -17.2714 N   0  0  0  0  0  0
  -18.3931   16.2691  -17.6753 H   0  0  0  0  0  0
  -15.7364   17.0166  -18.4658 C   0  0  0  0  0  0
  -14.5167   17.6864  -18.5560 C   0  0  0  0  0  0
  -14.2475   18.8192  -17.7851 C   0  0  0  0  0  0
  -15.1876   19.3112  -16.8760 C   0  0  0  0  0  0
  1  2  1  0  0  0
  2  3  1  0  0  0
  3  4  1  0  0  0
  4  5  2  0  0  0
  4  9  1  0  0  0
  5  6  1  0  0  0
  6  7  2  0  0  0
  7  8  1  0  0  0
  7 10  1  0  0  0
  8  9  2  0  0  0
 10 11  1  0  0  0
 10 16  1  0  0  0
 11 12  2  0  0  0
 13 11  1  0  0  0
 13 14  1  0  0  0
 13 31  1  0  0  0
 14 15  1  0  0  0
 14 29  1  0  0  0
 15 16  1  0  0  0
 16 17  1  0  0  0
 17 18  1  0  0  0
 18 19  1  0  0  0
 19 20  2  0  0  0
 19 21  1  0  0  0
 21 22  1  0  0  0
 21 26  1  0  0  0
 22 23  1  0  0  0
 23 24  1  0  0  0
 24 25  1  0  0  0
 25 26  1  0  0  0
 26 27  1  0  0  0
 27 28  1  0  0  0
 29 30  1  0  0  0
 29 36  1  0  0  0
 30 31  1  0  0  0
 30 33  1  0  0  0
 31 32  1  0  0  0
 33 34  1  0  0  0
 34 35  1  0  0  0
 35 36  1  0  0  0
M  END
>  <CHROM.0>
-60.19863955,63.11499871,-127.69817806,65.96592297,-31.12481077,56.80014927
-37.97297238,-161.40951906

>  <CHROM.1>
67.45614312,37.20966472,132.49865989,-53.47267342,161.15675085,20.73491456
-149.64313517,-59.43200202,-20.54418368,20.03597304,-13.82288736,2.60118008
0.55624776,0.20462506

>  <Name>
F0580-0570

>  <RI>
4.35633e+07

>  <Rbt.Current_Directory>
/home/adria/Escritorio/rDock_CMTR_LC/2pxcA_model/inputs_sah

>  <Rbt.Executable>
rbdock ($Id: //depot/dev/client3/rdock/2013.1/src/exe/rbdock.cxx#4 $)

>  <Rbt.Library>
libRbt.so (2013.1, Build901 2013/11/27)

>  <Rbt.Parameter_File>
/home/adria/Escritorio/rDock_2013.1_src/data/scripts/dock.prm

>  <Rbt.Receptor>
sah_rdock.prm

>  <SCORE>
-306.076

>  <SCORE.INTER>
-14.3599

>  <SCORE.INTER.CONST>
1

>  <SCORE.INTER.POLAR>
0

>  <SCORE.INTER.REPUL>
0

>  <SCORE.INTER.ROT>
8

>  <SCORE.INTER.VDW>
-27.7599

>  <SCORE.INTER.norm>
-0.410282

>  <SCORE.INTRA>
-285.021

>  <SCORE.INTRA.DIHEDRAL>
-6.62185

>  <SCORE.INTRA.DIHEDRAL.0>
12.5391

>  <SCORE.INTRA.POLAR>
0

>  <SCORE.INTRA.POLAR.0>
0

>  <SCORE.INTRA.REPUL>
0

>  <SCORE.INTRA.REPUL.0>
0

>  <SCORE.INTRA.VDW>
-281.71

>  <SCORE.INTRA.VDW.0>
281.478

>  <SCORE.INTRA.norm>
-8.14345

>  <SCORE.RESTR>
0.00959613

>  <SCORE.RESTR.CAVITY>
0.00959613

>  <SCORE.RESTR.norm>
0.000274175

>  <SCORE.SYSTEM>
-6.70496

>  <SCORE.SYSTEM.CONST>
0

>  <SCORE.SYSTEM.DIHEDRAL>
8.64927

>  <SCORE.SYSTEM.POLAR>
-4.19656

>  <SCORE.SYSTEM.VDW>
3.23869

>  <SCORE.SYSTEM.norm>
-0.19157

>  <SCORE.heavy>
35

>  <SCORE.norm>
-8.74503

$$$$
F0580-0570
  rDOCK(R)          3D
libRbt.so/2013.1/901 2013/11/27
 36 40  0  0  0  0  0  0  0  0999 V2000
  -20.6546   25.5258  -10.7521 C   0  0  0  0  0  0
  -21.0118   24.4995  -11.8134 C   0  0  0  0  0  0
  -20.1143   23.4169  -11.7090 O   0  0  0  0  0  0
  -20.5930   22.2260  -12.7564 C   0  0  0  0  0  0
  -20.1653   22.2604  -14.7148 C   0  0  0  0  0  0
  -18.9382   21.1257  -15.3388 C   0  0  0  0  0  0
  -18.1728   20.0910  -14.2628 C   0  0  0  0  0  0
  -18.2800   20.2194  -12.6147 C   0  0  0  0  0  0
  -19.4132   21.2213  -11.8107 C   0  0  0  0  0  0
  -17.8854   18.8472  -14.8852 N   0  3  0  0  0  0
  -16.6232   18.8851  -15.4670 C   0  0  0  0  0  0
  -15.7694   19.7509  -15.2897 O   0  0  0  0  0  0
  -16.4066   17.8223  -16.3540 C   0  0  0  0  0  0
  -17.2853   16.8193  -16.5761 C   0  0  0  0  0  0
  -18.5303   16.7781  -15.9790 N   0  0  0  0  0  0
  -18.8024   17.7864  -15.1932 C   0  0  0  0  0  0
  -20.4025   17.5205  -14.5019 S   0  0  0  0  0  0
  -20.4314   18.2333  -12.8531 C   0  0  0  0  0  0
  -21.7879   17.9256  -12.3129 C   0  0  0  0  0  0
  -21.8070   17.8721  -11.0714 O   0  0  0  0  0  0
  -22.9389   17.9201  -13.3566 N   0  0  0  0  0  0
  -24.1351   16.7407  -12.5878 C   0  0  0  0  0  0
  -25.6737   17.4267  -12.1457 C   0  0  0  0  0  0
  -26.5479   18.6524  -13.0982 C   0  0  0  0  0  0
  -25.5854   19.8464  -14.1906 C   0  0  0  0  0  0
  -23.6948   19.2862  -14.8996 C   0  0  0  0  0  0
  -24.0636   18.9397  -16.4564 C   0  0  0  0  0  0
  -22.7657   18.6956  -17.1942 C   0  0  0  0  0  0
  -16.7304   15.9344  -17.5127 C   0  0  0  0  0  0
  -15.5123   16.5090  -17.9019 C   0  0  0  0  0  0
  -15.3329   17.6509  -17.1618 N   0  0  0  0  0  0
  -14.5584   18.2987  -17.2237 H   0  0  0  0  0  0
  -14.6981   15.9639  -18.8883 C   0  0  0  0  0  0
  -15.1350   14.7797  -19.4809 C   0  0  0  0  0  0
  -16.3274   14.1658  -19.0920 C   0  0  0  0  0  0
  -17.1395   14.7308  -18.1053 C   0  0  0  0  0  0
  1  2  1  0  0  0
  2  3  1  0  0  0
  3  4  1  0  0  0
  4  5  2  0  0  0
  4  9  1  0  0  0
  5  6  1  0  0  0
  6  7  2  0  0  0
  7  8  1  0  0  0
  7 10  1  0  0  0
  8  9  2  0  0  0
 10 11  1  0  0  0
 10 16  1  0  0  0
 11 12  2  0  0  0
 13 11  1  0  0  0
 13 14  1  0  0  0
 13 31  1  0  0  0
 14 15  1  0  0  0
 14 29  1  0  0  0
 15 16  1  0  0  0
 16 17  1  0  0  0
 17 18  1  0  0  0
 18 19  1  0  0  0
 19 20  2  0  0  0
 19 21  1  0  0  0
 21 22  1  0  0  0
 21 26  1  0  0  0
 22 23  1  0  0  0
 23 24  1  0  0  0
 24 25  1  0  0  0
 25 26  1  0  0  0
 26 27  1  0  0  0
 27 28  1  0  0  0
 29 30  1  0  0  0
 29 36  1  0  0  0
 30 31  1  0  0  0
 30 33  1  0  0  0
 31 32  1  0  0  0
 33 34  1  0  0  0
 34 35  1  0  0  0
 35 36  1  0  0  0
M  END
>  <CHROM.0>
-64.43001060,-75.84420022,75.71702323,60.93069446,-30.94636627,171.56120594
-43.83025009,-48.92337157

>  <CHROM.1>
174.21719951,80.99878591,90.54742257,-27.23176746,-177.84344571,153.71301740
152.48060281,-71.35442470,-19.74392780,18.71261365,-14.78276530,-2.40211431
-0.28942180,-2.57846464

>  <Name>
F0580-0570

>  <RI>
4.35633e+07

>  <Rbt.Current_Directory>
/home/adria/Escritorio/rDock_CMTR_LC/2pxcA_model/inputs_sah

>  <Rbt.Executable>
rbdock ($Id: //depot/dev/client3/rdock/2013.1/src/exe/rbdock.cxx#4 $)

>  <Rbt.Library>
libRbt.so (2013.1, Build901 2013/11/27)

>  <Rbt.Parameter_File>
/home/adria/Escritorio/rDock_2013.1_src/data/scripts/dock.prm

>  <Rbt.Receptor>
sah_rdock.prm

>  <SCORE>
-306.744

>  <SCORE.INTER>
-13.7989

>  <SCORE.INTER.CONST>
1

>  <SCORE.INTER.POLAR>
-0.196611

>  <SCORE.INTER.REPUL>
0

>  <SCORE.INTER.ROT>
8

>  <SCORE.INTER.VDW>
-26.5304

>  <SCORE.INTER.norm>
-0.394255

>  <SCORE.INTRA>
-287.679

>  <SCORE.INTRA.DIHEDRAL>
-6.052

>  <SCORE.INTRA.DIHEDRAL.0>
12.5391

>  <SCORE.INTRA.POLAR>
0

>  <SCORE.INTRA.POLAR.0>
0

>  <SCORE.INTRA.REPUL>
0

>  <SCORE.INTRA.REPUL.0>
0

>  <SCORE.INTRA.VDW>
-284.653

>  <SCORE.INTRA.VDW.0>
281.478

>  <SCORE.INTRA.norm>
-8.21941

>  <SCORE.RESTR>
0

>  <SCORE.RESTR.CAVITY>
0

>  <SCORE.RESTR.norm>
0

>  <SCORE.SYSTEM>
-5.26577

>  <SCORE.SYSTEM.CONST>
0

>  <SCORE.SYSTEM.DIHEDRAL>
8.77329

>  <SCORE.SYSTEM.POLAR>
-3.56195

>  <SCORE.SYSTEM.REPUL>
0.0577271

>  <SCORE.SYSTEM.VDW>
2.16958

>  <SCORE.SYSTEM.norm>
-0.150451

>  <SCORE.heavy>
35

>  <SCORE.norm>
-8.76411

$$$$
F0580-0570
  rDOCK(R)          3D
libRbt.so/2013.1/901 2013/11/27
 36 40  0  0  0  0  0  0  0  0999 V2000
  -26.6567   20.2842  -10.8765 C   0  0  0  0  0  0
  -25.9719   19.0615  -10.2907 C   0  0  0  0  0  0
  -25.1543   18.4868  -11.2855 O   0  0  0  0  0  0
  -23.8474   19.4738  -11.5357 C   0  0  0  0  0  0
  -22.0062   19.0323  -10.8767 C   0  0  0  0  0  0
  -20.7728   18.5340  -12.0653 C   0  0  0  0  0  0
  -21.2044   18.4308  -13.6831 C   0  0  0  0  0  0
  -22.7647   18.5048  -14.2348 C   0  0  0  0  0  0
  -24.0923   18.9949  -13.2696 C   0  0  0  0  0  0
  -20.1133   18.7971  -14.5152 N   0  3  0  0  0  0
  -19.4383   17.6601  -14.9450 C   0  0  0  0  0  0
  -19.8313   16.5007  -14.8387 O   0  0  0  0  0  0
  -18.1860   17.9545  -15.5003 C   0  0  0  0  0  0
  -17.7015   19.2043  -15.6769 C   0  0  0  0  0  0
  -18.3870   20.3306  -15.2649 N   0  0  0  0  0  0
  -19.5327   20.0998  -14.6799 C   0  0  0  0  0  0
  -20.2608   21.6545  -14.2780 S   0  0  0  0  0  0
  -20.6638   21.6542  -12.5272 C   0  0  0  0  0  0
  -22.0236   22.2614  -12.4342 C   0  0  0  0  0  0
  -22.8670   21.6511  -13.1129 O   0  0  0  0  0  0
  -22.1797   23.3964  -11.3846 N   0  0  0  0  0  0
  -23.9983   23.3596  -11.0617 C   0  0  0  0  0  0
  -24.4549   22.9417   -9.4337 C   0  0  0  0  0  0
  -23.5832   23.4653   -7.9709 C   0  0  0  0  0  0
  -21.7378   23.8275   -8.0635 C   0  0  0  0  0  0
  -20.8952   24.3798   -9.9008 C   0  0  0  0  0  0
  -20.6927   25.9851   -9.6523 C   0  0  0  0  0  0
  -22.0299   26.5599   -9.2398 C   0  0  0  0  0  0
  -16.4310   19.1151  -16.2649 C   0  0  0  0  0  0
  -16.1475   17.7447  -16.3493 C   0  0  0  0  0  0
  -17.2469   17.0611  -15.8934 N   0  0  0  0  0  0
  -17.3465   16.0578  -15.8110 H   0  0  0  0  0  0
  -14.9320   17.2491  -16.8075 C   0  0  0  0  0  0
  -13.9830   18.1869  -17.2128 C   0  0  0  0  0  0
  -14.2476   19.5574  -17.1714 C   0  0  0  0  0  0
  -15.4709   20.0404  -16.6997 C   0  0  0  0  0  0
  1  2  1  0  0  0
  2  3  1  0  0  0
  3  4  1  0  0  0
  4  5  2  0  0  0
  4  9  1  0  0  0
  5  6  1  0  0  0
  6  7  2  0  0  0
  7  8  1  0  0  0
  7 10  1  0  0  0
  8  9  2  0  0  0
 10 11  1  0  0  0
 10 16  1  0  0  0
 11 12  2  0  0  0
 13 11  1  0  0  0
 13 14  1  0  0  0
 13 31  1  0  0  0
 14 15  1  0  0  0
 14 29  1  0  0  0
 15 16  1  0  0  0
 16 17  1  0  0  0
 17 18  1  0  0  0
 18 19  1  0  0  0
 19 20  2  0  0  0
 19 21  1  0  0  0
 21 22  1  0  0  0
 21 26  1  0  0  0
 22 23  1  0  0  0
 23 24  1  0  0  0
 24 25  1  0  0  0
 25 26  1  0  0  0
 26 27  1  0  0  0
 27 28  1  0  0  0
 29 30  1  0  0  0
 29 36  1  0  0  0
 30 31  1  0  0  0
 30 33  1  0  0  0
 31 32  1  0  0  0
 33 34  1  0  0  0
 34 35  1  0  0  0
 35 36  1  0  0  0
M  END
>  <CHROM.0>
-175.39005442,-166.35355970,-45.78685755,66.74516378,-30.39501979,-59.75812853
-156.29021008,-164.63112295

>  <CHROM.1>
71.55677286,105.74834955,96.72216634,58.55200079,-136.68686378,57.22375167
-156.87172827,62.25510613,-20.57692546,20.39522659,-13.13266777,2.44036503
0.44460861,0.49962186

>  <Name>
F0580-0570

>  <RI>
4.35633e+07

>  <Rbt.Current_Directory>
/home/adria/Escritorio/rDock_CMTR_LC/2pxcA_model/inputs_sah

>  <Rbt.Executable>
rbdock ($Id: //depot/dev/client3/rdock/2013.1/src/exe/rbdock.cxx#4 $)

>  <Rbt.Library>
libRbt.so (2013.1, Build901 2013/11/27)

>  <Rbt.Parameter_File>
/home/adria/Escritorio/rDock_2013.1_src/data/scripts/dock.prm

>  <Rbt.Receptor>
sah_rdock.prm

>  <SCORE>
-288.766

>  <SCORE.INTER>
2.86502

>  <SCORE.INTER.CONST>
1

>  <SCORE.INTER.POLAR>
0

>  <SCORE.INTER.REPUL>
0.0296306

>  <SCORE.INTER.ROT>
8

>  <SCORE.INTER.VDW>
-10.6831

>  <SCORE.INTER.norm>
0.0818576

>  <SCORE.INTRA>
-285.557

>  <SCORE.INTRA.DIHEDRAL>
-3.01349

>  <SCORE.INTRA.DIHEDRAL.0>
12.5391

>  <SCORE.INTRA.POLAR>
0

>  <SCORE.INTRA.POLAR.0>
0

>  <SCORE.INTRA.REPUL>
0

>  <SCORE.INTRA.REPUL.0>
0

>  <SCORE.INTRA.VDW>
-284.05

>  <SCORE.INTRA.VDW.0>
281.478

>  <SCORE.INTRA.norm>
-8.15876

>  <SCORE.RESTR>
0

>  <SCORE.RESTR.CAVITY>
0

>  <SCORE.RESTR.norm>
0

>  <SCORE.SYSTEM>
-6.074

>  <SCORE.SYSTEM.CONST>
0

>  <SCORE.SYSTEM.DIHEDRAL>
6.76363

>  <SCORE.SYSTEM.POLAR>
-3.73363

>  <SCORE.SYSTEM.VDW>
3.23851

>  <SCORE.SYSTEM.norm>
-0.173543

>  <SCORE.heavy>
35

>  <SCORE.norm>
-8.25045

$$$$
F0580-0570
  rDOCK(R)          3D
libRbt.so/2013.1/901 2013/11/27
 36 40  0  0  0  0  0  0  0  0999 V2000
  -16.5910   15.8692  -18.3575 C   0  0  0  0  0  0
  -17.4525   16.0589  -17.1210 C   0  0  0  0  0  0
  -18.7673   16.3587  -17.5334 O   0  0  0  0  0  0
  -19.7227   16.5198  -16.1896 C   0  0  0  0  0  0
  -18.9855   16.9278  -14.3705 C   0  0  0  0  0  0
  -19.2420   18.5582  -13.6935 C   0  0  0  0  0  0
  -20.0680   19.6938  -14.6113 C   0  0  0  0  0  0
  -20.4410   19.4997  -16.2137 C   0  0  0  0  0  0
  -20.3035   18.0101  -17.0483 C   0  0  0  0  0  0
  -20.8384   20.5459  -13.7762 N   0  3  0  0  0  0
  -20.2053   21.7757  -13.6355 C   0  0  0  0  0  0
  -19.2543   22.1812  -14.2996 O   0  0  0  0  0  0
  -20.7395   22.5402  -12.5898 C   0  0  0  0  0  0
  -21.8016   22.1733  -11.8382 C   0  0  0  0  0  0
  -22.4381   20.9576  -11.9971 N   0  0  0  0  0  0
  -21.9306   20.1819  -12.9184 C   0  0  0  0  0  0
  -22.9068   18.7154  -12.9925 S   0  0  0  0  0  0
  -23.0689   18.0598  -11.3277 C   0  0  0  0  0  0
  -23.8068   19.1058  -10.5608 C   0  0  0  0  0  0
  -23.3409   19.2813   -9.4221 O   0  0  0  0  0  0
  -24.8700   19.9020  -11.3669 N   0  0  0  0  0  0
  -26.1013   20.3171  -10.0536 C   0  0  0  0  0  0
  -26.2994   22.0173   -9.7326 C   0  0  0  0  0  0
  -26.2764   23.2928  -10.9762 C   0  0  0  0  0  0
  -25.2933   23.0334  -12.5610 C   0  0  0  0  0  0
  -24.9095   21.0810  -13.2181 C   0  0  0  0  0  0
  -25.9791   20.9787  -14.4530 C   0  0  0  0  0  0
  -27.3709   21.0095  -13.8609 C   0  0  0  0  0  0
  -22.0587   23.1836  -10.8995 C   0  0  0  0  0  0
  -21.0407   24.1314  -11.0740 C   0  0  0  0  0  0
  -20.2624   23.7205  -12.1272 N   0  0  0  0  0  0
  -19.4369   24.1809  -12.4877 H   0  0  0  0  0  0
  -20.9030   25.2534  -10.2645 C   0  0  0  0  0  0
  -21.8514   25.4218   -9.2564 C   0  0  0  0  0  0
  -22.8961   24.5125   -9.0781 C   0  0  0  0  0  0
  -23.0159   23.3847   -9.8942 C   0  0  0  0  0  0
  1  2  1  0  0  0
  2  3  1  0  0  0
  3  4  1  0  0  0
  4  5  2  0  0  0
  4  9  1  0  0  0
  5  6  1  0  0  0
  6  7  2  0  0  0
  7  8  1  0  0  0
  7 10  1  0  0  0
  8  9  2  0  0  0
 10 11  1  0  0  0
 10 16  1  0  0  0
 11 12  2  0  0  0
 13 11  1  0  0  0
 13 14  1  0  0  0
 13 31  1  0  0  0
 14 15  1  0  0  0
 14 29  1  0  0  0
 15 16  1  0  0  0
 16 17  1  0  0  0
 17 18  1  0  0  0
 18 19  1  0  0  0
 19 20  2  0  0  0
 19 21  1  0  0  0
 21 22  1  0  0  0
 21 26  1  0  0  0
 22 23  1  0  0  0
 23 24  1  0  0  0
 24 25  1  0  0  0
 25 26  1  0  0  0
 26 27  1  0  0  0
 27 28  1  0  0  0
 29 30  1  0  0  0
 29 36  1  0  0  0
 30 31  1  0  0  0
 30 33  1  0  0  0
 31 32  1  0  0  0
 33 34  1  0  0  0
 34 35  1  0  0  0
 35 36  1  0  0  0
M  END
>  <CHROM.0>
-177.22355506,71.14008357,-130.00194630,66.37187401,34.82741178,176.70580397
-156.59506533,-163.44473922

>  <CHROM.1>
178.24053245,21.48740907,103.05332387,133.98591510,63.09200685,-138.02731228
149.98094149,49.33357625,-22.07231769,20.62683485,-12.84071678,-0.96171393
0.31349157,0.59191599

>  <Name>
F0580-0570

>  <RI>
4.35633e+07

>  <Rbt.Current_Directory>
/home/adria/Escritorio/rDock_CMTR_LC/2pxcA_model/inputs_sah

>  <Rbt.Executable>
rbdock ($Id: //depot/dev/client3/rdock/2013.1/src/exe/rbdock.cxx#4 $)

>  <Rbt.Library>
libRbt.so (2013.1, Build901 2013/11/27)

>  <Rbt.Parameter_File>
/home/adria/Escritorio/rDock_2013.1_src/data/scripts/dock.prm

>  <Rbt.Receptor>
sah_rdock.prm

>  <SCORE>
-293.399

>  <SCORE.INTER>
-9.54828

>  <SCORE.INTER.CONST>
1

>  <SCORE.INTER.POLAR>
-1.01446

>  <SCORE.INTER.REPUL>
0.278901

>  <SCORE.INTER.ROT>
8

>  <SCORE.INTER.VDW>
-20.8936

>  <SCORE.INTER.norm>
-0.272808

>  <SCORE.INTRA>
-289.4

>  <SCORE.INTRA.DIHEDRAL>
-7.08236

>  <SCORE.INTRA.DIHEDRAL.0>
12.5391

>  <SCORE.INTRA.POLAR>
0

>  <SCORE.INTRA.POLAR.0>
0

>  <SCORE.INTRA.REPUL>
0

>  <SCORE.INTRA.REPUL.0>
0

>  <SCORE.INTRA.VDW>
-285.859

>  <SCORE.INTRA.VDW.0>
281.478

>  <SCORE.INTRA.norm>
-8.26857

>  <SCORE.RESTR>
0.0083015

>  <SCORE.RESTR.CAVITY>
0.0083015

>  <SCORE.RESTR.norm>
0.000237186

>  <SCORE.SYSTEM>
5.54096

>  <SCORE.SYSTEM.CONST>
0

>  <SCORE.SYSTEM.DIHEDRAL>
8.49723

>  <SCORE.SYSTEM.POLAR>
-3.93262

>  <SCORE.SYSTEM.VDW>
14.6632

>  <SCORE.SYSTEM.norm>
0.158313

>  <SCORE.heavy>
35

>  <SCORE.norm>
-8.38283

$$$$
F0580-0570
  rDOCK(R)          3D
libRbt.so/2013.1/901 2013/11/27
 36 40  0  0  0  0  0  0  0  0999 V2000
  -26.6026   18.2185  -11.5101 C   0  0  0  0  0  0
  -25.8341   17.9015  -12.7813 C   0  0  0  0  0  0
  -24.9045   16.8793  -12.4990 O   0  0  0  0  0  0
  -23.9038   16.6944  -13.8062 C   0  0  0  0  0  0
  -24.0085   17.8616  -15.4328 C   0  0  0  0  0  0
  -22.7202   19.0661  -15.7014 C   0  0  0  0  0  0
  -21.4847   19.1933  -14.5737 C   0  0  0  0  0  0
  -21.5049   18.4622  -13.0872 C   0  0  0  0  0  0
  -22.6322   17.2534  -12.6372 C   0  0  0  0  0  0
  -20.2603   19.5287  -15.2103 N   0  3  0  0  0  0
  -19.8063   18.4545  -15.9673 C   0  0  0  0  0  0
  -20.4492   17.4476  -16.2549 O   0  0  0  0  0  0
  -18.4694   18.5997  -16.3610 C   0  0  0  0  0  0
  -17.7108   19.6898  -16.1079 C   0  0  0  0  0  0
  -18.1756   20.7621  -15.3716 N   0  0  0  0  0  0
  -19.3982   20.6409  -14.9260 C   0  0  0  0  0  0
  -19.8108   22.1210  -14.0610 S   0  0  0  0  0  0
  -21.4122   21.8914  -13.2799 C   0  0  0  0  0  0
  -21.6877   23.1687  -12.5593 C   0  0  0  0  0  0
  -21.1579   24.1503  -13.1072 O   0  0  0  0  0  0
  -22.7166   23.0744  -11.3989 N   0  0  0  0  0  0
  -23.8863   24.4396  -11.8245 C   0  0  0  0  0  0
  -25.5146   23.9369  -12.1841 C   0  0  0  0  0  0
  -26.3808   22.6285  -11.3405 C   0  0  0  0  0  0
  -25.4095   21.2100  -10.5723 C   0  0  0  0  0  0
  -23.4145   21.5220  -10.0126 C   0  0  0  0  0  0
  -23.5856   21.6275   -8.3881 C   0  0  0  0  0  0
  -24.3640   22.8894   -8.0877 C   0  0  0  0  0  0
  -16.4357   19.4876  -16.6570 C   0  0  0  0  0  0
  -16.4479   18.1848  -17.1744 C   0  0  0  0  0  0
  -17.7100   17.6756  -16.9967 N   0  0  0  0  0  0
  -18.0319   16.7501  -17.2479 H   0  0  0  0  0  0
  -15.3274   17.5813  -17.7344 C   0  0  0  0  0  0
  -14.1616   18.3445  -17.7857 C   0  0  0  0  0  0
  -14.1267   19.6564  -17.3084 C   0  0  0  0  0  0
  -15.2588   20.2459  -16.7400 C   0  0  0  0  0  0
  1  2  1  0  0  0
  2  3  1  0  0  0
  3  4  1  0  0  0
  4  5  2  0  0  0
  4  9  1  0  0  0
  5  6  1  0  0  0
  6  7  2  0  0  0
  7  8  1  0  0  0
  7 10  1  0  0  0
  8  9  2  0  0  0
 10 11  1  0  0  0
 10 16  1  0  0  0
 11 12  2  0  0  0
 13 11  1  0  0  0
 13 14  1  0  0  0
 13 31  1  0  0  0
 14 15  1  0  0  0
 14 29  1  0  0  0
 15 16  1  0  0  0
 16 17  1  0  0  0
 17 18  1  0  0  0
 18 19  1  0  0  0
 19 20  2  0  0  0
 19 21  1  0  0  0
 21 22  1  0  0  0
 21 26  1  0  0  0
 22 23  1  0  0  0
 23 24  1  0  0  0
 24 25  1  0  0  0
 25 26  1  0  0  0
 26 27  1  0  0  0
 27 28  1  0  0  0
 29 30  1  0  0  0
 29 36  1  0  0  0
 30 31  1  0  0  0
 30 33  1  0  0  0
 31 32  1  0  0  0
 33 34  1  0  0  0
 34 35  1  0  0  0
 35 36  1  0  0  0
M  END
>  <CHROM.0>
-178.60374775,-72.10708204,-9.32128465,-63.01764222,168.28964971,174.04620935
-37.88016944,-166.99281716

>  <CHROM.1>
-171.16195514,3.36012369,-69.72784957,11.54439755,179.39832866,29.51613718
-128.56712535,49.49590034,-21.03326004,20.10857285,-13.95544534,2.66556321
0.47169651,0.44646555

>  <Name>
F0580-0570

>  <RI>
4.35633e+07

>  <Rbt.Current_Directory>
/home/adria/Escritorio/rDock_CMTR_LC/2pxcA_model/inputs_sah

>  <Rbt.Executable>
rbdock ($Id: //depot/dev/client3/rdock/2013.1/src/exe/rbdock.cxx#4 $)

>  <Rbt.Library>
libRbt.so (2013.1, Build901 2013/11/27)

>  <Rbt.Parameter_File>
/home/adria/Escritorio/rDock_2013.1_src/data/scripts/dock.prm

>  <Rbt.Receptor>
sah_rdock.prm

>  <SCORE>
-299.335

>  <SCORE.INTER>
-12.2261

>  <SCORE.INTER.CONST>
1

>  <SCORE.INTER.POLAR>
0

>  <SCORE.INTER.REPUL>
0.180431

>  <SCORE.INTER.ROT>
8

>  <SCORE.INTER.VDW>
-26.5282

>  <SCORE.INTER.norm>
-0.349317

>  <SCORE.INTRA>
-285.284

>  <SCORE.INTRA.DIHEDRAL>
-6.64519

>  <SCORE.INTRA.DIHEDRAL.0>
12.5391

>  <SCORE.INTRA.POLAR>
0

>  <SCORE.INTRA.POLAR.0>
0

>  <SCORE.INTRA.REPUL>
0

>  <SCORE.INTRA.REPUL.0>
0

>  <SCORE.INTRA.VDW>
-281.962

>  <SCORE.INTRA.VDW.0>
281.478

>  <SCORE.INTRA.norm>
-8.15098

>  <SCORE.RESTR>
0.0026432

>  <SCORE.RESTR.CAVITY>
0.0026432

>  <SCORE.RESTR.norm>
7.55201e-05

>  <SCORE.SYSTEM>
-1.82722

>  <SCORE.SYSTEM.CONST>
0

>  <SCORE.SYSTEM.DIHEDRAL>
6.20737

>  <SCORE.SYSTEM.POLAR>
-4.43938

>  <SCORE.SYSTEM.REPUL>
0.0369021

>  <SCORE.SYSTEM.VDW>
9.97847

>  <SCORE.SYSTEM.norm>
-0.0522062

>  <SCORE.heavy>
35

>  <SCORE.norm>
-8.55243

$$$$
F0580-0570
  rDOCK(R)          3D
libRbt.so/2013.1/901 2013/11/27
 36 40  0  0  0  0  0  0  0  0999 V2000
  -24.4536   16.2631  -12.7896 C   0  0  0  0  0  0
  -25.1708   16.9284  -11.6276 C   0  0  0  0  0  0
  -25.2676   18.3099  -11.8934 O   0  0  0  0  0  0
  -23.7629   18.9869  -11.7456 C   0  0  0  0  0  0
  -22.0954   17.8978  -11.5169 C   0  0  0  0  0  0
  -20.9631   17.7749  -12.8900 C   0  0  0  0  0  0
  -21.3461   18.5538  -14.3256 C   0  0  0  0  0  0
  -22.8274   19.2181  -14.6555 C   0  0  0  0  0  0
  -24.0448   19.4611  -13.4751 C   0  0  0  0  0  0
  -20.1700   19.0274  -14.9657 N   0  3  0  0  0  0
  -19.7409   18.1078  -15.9161 C   0  0  0  0  0  0
  -20.3793   17.1433  -16.3311 O   0  0  0  0  0  0
  -18.4339   18.3571  -16.3553 C   0  0  0  0  0  0
  -17.6840   19.4128  -15.9671 C   0  0  0  0  0  0
  -18.1250   20.3337  -15.0366 N   0  0  0  0  0  0
  -19.3154   20.1030  -14.5488 C   0  0  0  0  0  0
  -19.7049   21.4060  -13.4266 S   0  0  0  0  0  0
  -20.3818   20.6791  -11.9296 C   0  0  0  0  0  0
  -21.4132   21.6458  -11.4519 C   0  0  0  0  0  0
  -22.3901   21.0829  -10.9291 O   0  0  0  0  0  0
  -21.0067   23.1442  -11.5148 N   0  0  0  0  0  0
  -21.7392   23.6627  -13.1297 C   0  0  0  0  0  0
  -22.9840   24.8762  -13.0246 C   0  0  0  0  0  0
  -22.9669   26.2498  -11.8902 C   0  0  0  0  0  0
  -22.0633   26.0910  -10.2458 C   0  0  0  0  0  0
  -20.4921   24.7157  -10.0712 C   0  0  0  0  0  0
  -19.2126   25.7361  -10.1090 C   0  0  0  0  0  0
  -17.9537   24.8988  -10.0572 C   0  0  0  0  0  0
  -16.4410   19.3435  -16.6137 C   0  0  0  0  0  0
  -16.4577   18.1446  -17.3401 C   0  0  0  0  0  0
  -17.6958   17.5747  -17.1786 N   0  0  0  0  0  0
  -18.0133   16.6942  -17.5623 H   0  0  0  0  0  0
  -15.3613   17.6768  -18.0558 C   0  0  0  0  0  0
  -14.2169   18.4732  -18.0449 C   0  0  0  0  0  0
  -14.1800   19.6884  -17.3578 C   0  0  0  0  0  0
  -15.2872   20.1407  -16.6355 C   0  0  0  0  0  0
  1  2  1  0  0  0
  2  3  1  0  0  0
  3  4  1  0  0  0
  4  5  2  0  0  0
  4  9  1  0  0  0
  5  6  1  0  0  0
  6  7  2  0  0  0
  7  8  1  0  0  0
  7 10  1  0  0  0
  8  9  2  0  0  0
 10 11  1  0  0  0
 10 16  1  0  0  0
 11 12  2  0  0  0
 13 11  1  0  0  0
 13 14  1  0  0  0
 13 31  1  0  0  0
 14 15  1  0  0  0
 14 29  1  0  0  0
 15 16  1  0  0  0
 16 17  1  0  0  0
 17 18  1  0  0  0
 18 19  1  0  0  0
 19 20  2  0  0  0
 19 21  1  0  0  0
 21 22  1  0  0  0
 21 26  1  0  0  0
 22 23  1  0  0  0
 23 24  1  0  0  0
 24 25  1  0  0  0
 25 26  1  0  0  0
 26 27  1  0  0  0
 27 28  1  0  0  0
 29 30  1  0  0  0
 29 36  1  0  0  0
 30 31  1  0  0  0
 30 33  1  0  0  0
 31 32  1  0  0  0
 33 34  1  0  0  0
 34 35  1  0  0  0
 35 36  1  0  0  0
M  END
>  <CHROM.0>
39.07201163,64.09805665,111.68057928,-67.15591429,168.11669836,-178.89825719
-156.54372183,-166.51779325

>  <CHROM.1>
-71.59662594,8.81327710,95.66782601,50.83811985,-145.22713772,144.87709430
95.76902241,-60.87032260,-20.16010241,20.36674610,-13.77295596,2.36284371
0.48386122,0.48637514

>  <Name>
F0580-0570

>  <RI>
4.35633e+07

>  <Rbt.Current_Directory>
/home/adria/Escritorio/rDock_CMTR_LC/2pxcA_model/inputs_sah

>  <Rbt.Executable>
rbdock ($Id: //depot/dev/client3/rdock/2013.1/src/exe/rbdock.cxx#4 $)

>  <Rbt.Library>
libRbt.so (2013.1, Build901 2013/11/27)

>  <Rbt.Parameter_File>
/home/adria/Escritorio/rDock_2013.1_src/data/scripts/dock.prm

>  <Rbt.Receptor>
sah_rdock.prm

>  <SCORE>
-303.12

>  <SCORE.INTER>
-19.6506

>  <SCORE.INTER.CONST>
1

>  <SCORE.INTER.POLAR>
0

>  <SCORE.INTER.REPUL>
0.336754

>  <SCORE.INTER.ROT>
8

>  <SCORE.INTER.VDW>
-34.7344

>  <SCORE.INTER.norm>
-0.561446

>  <SCORE.INTRA>
-285.924

>  <SCORE.INTRA.DIHEDRAL>
-4.92015

>  <SCORE.INTRA.DIHEDRAL.0>
12.5391

>  <SCORE.INTRA.POLAR>
0

>  <SCORE.INTRA.POLAR.0>
0

>  <SCORE.INTRA.REPUL>
0

>  <SCORE.INTRA.REPUL.0>
0

>  <SCORE.INTRA.VDW>
-283.464

>  <SCORE.INTRA.VDW.0>
281.478

>  <SCORE.INTRA.norm>
-8.16926

>  <SCORE.RESTR>
0.135674

>  <SCORE.RESTR.CAVITY>
0.135674

>  <SCORE.RESTR.norm>
0.00387639

>  <SCORE.SYSTEM>
2.31949

>  <SCORE.SYSTEM.CONST>
0

>  <SCORE.SYSTEM.DIHEDRAL>
7.85165

>  <SCORE.SYSTEM.POLAR>
-4.19377

>  <SCORE.SYSTEM.REPUL>
0.12617

>  <SCORE.SYSTEM.VDW>
12.0217

>  <SCORE.SYSTEM.norm>
0.0662713

>  <SCORE.heavy>
35

>  <SCORE.norm>
-8.66056

$$$$
F0580-0570
  rDOCK(R)          3D
libRbt.so/2013.1/901 2013/11/27
 36 40  0  0  0  0  0  0  0  0999 V2000
  -26.4611   19.0014  -10.2257 C   0  0  0  0  0  0
  -25.7499   18.4019  -11.4265 C   0  0  0  0  0  0
  -24.5159   17.8715  -10.9969 O   0  0  0  0  0  0
  -23.7065   17.2739  -12.3129 C   0  0  0  0  0  0
  -23.9235   18.0245  -14.1592 C   0  0  0  0  0  0
  -22.5882   18.9842  -14.8509 C   0  0  0  0  0  0
  -21.2138   19.2423  -13.9243 C   0  0  0  0  0  0
  -21.1035   18.8927  -12.3088 C   0  0  0  0  0  0
  -22.2570   17.9546  -11.4579 C   0  0  0  0  0  0
  -20.0571   19.2824  -14.7475 N   0  3  0  0  0  0
  -19.6515   17.9907  -15.0637 C   0  0  0  0  0  0
  -20.2981   16.9624  -14.8783 O   0  0  0  0  0  0
  -18.3578   17.9483  -15.6001 C   0  0  0  0  0  0
  -17.6006   19.0378  -15.8598 C   0  0  0  0  0  0
  -18.0186   20.3200  -15.5608 N   0  0  0  0  0  0
  -19.1945   20.4027  -14.9964 C   0  0  0  0  0  0
  -19.5569   22.1096  -14.7429 S   0  0  0  0  0  0
  -20.9471   22.2301  -13.6113 C   0  0  0  0  0  0
  -20.3853   21.9324  -12.2614 C   0  0  0  0  0  0
  -19.3172   21.2995  -12.3172 O   0  0  0  0  0  0
  -21.1111   22.6144  -11.0688 N   0  0  0  0  0  0
  -19.9604   24.0056  -10.6769 C   0  0  0  0  0  0
  -20.6226   25.6012  -10.8976 C   0  0  0  0  0  0
  -22.2988   26.0651  -10.5113 C   0  0  0  0  0  0
  -23.6649   24.7711  -10.5812 C   0  0  0  0  0  0
  -23.1728   22.7501  -10.3275 C   0  0  0  0  0  0
  -23.7096   22.5140   -8.7992 C   0  0  0  0  0  0
  -23.4255   21.0753   -8.4280 C   0  0  0  0  0  0
  -16.3755   18.6161  -16.3978 C   0  0  0  0  0  0
  -16.4086   17.2150  -16.3640 C   0  0  0  0  0  0
  -17.6402   16.8369  -15.8907 N   0  0  0  0  0  0
  -17.9655   15.8922  -15.7321 H   0  0  0  0  0  0
  -15.3309   16.4221  -16.7421 C   0  0  0  0  0  0
  -14.1889   17.0851  -17.1899 C   0  0  0  0  0  0
  -14.1368   18.4785  -17.2661 C   0  0  0  0  0  0
  -15.2251   19.2621  -16.8738 C   0  0  0  0  0  0
  1  2  1  0  0  0
  2  3  1  0  0  0
  3  4  1  0  0  0
  4  5  2  0  0  0
  4  9  1  0  0  0
  5  6  1  0  0  0
  6  7  2  0  0  0
  7  8  1  0  0  0
  7 10  1  0  0  0
  8  9  2  0  0  0
 10 11  1  0  0  0
 10 16  1  0  0  0
 11 12  2  0  0  0
 13 11  1  0  0  0
 13 14  1  0  0  0
 13 31  1  0  0  0
 14 15  1  0  0  0
 14 29  1  0  0  0
 15 16  1  0  0  0
 16 17  1  0  0  0
 17 18  1  0  0  0
 18 19  1  0  0  0
 19 20  2  0  0  0
 19 21  1  0  0  0
 21 22  1  0  0  0
 21 26  1  0  0  0
 22 23  1  0  0  0
 23 24  1  0  0  0
 24 25  1  0  0  0
 25 26  1  0  0  0
 26 27  1  0  0  0
 27 28  1  0  0  0
 29 30  1  0  0  0
 29 36  1  0  0  0
 30 31  1  0  0  0
 30 33  1  0  0  0
 31 32  1  0  0  0
 33 34  1  0  0  0
 34 35  1  0  0  0
 35 36  1  0  0  0
M  END
>  <CHROM.0>
40.10383463,-73.45791903,111.55385961,150.05937064,-29.87242999,177.48488906
-156.19281257,-161.62339874

>  <CHROM.1>
-177.61065907,29.65428640,-80.16929846,19.13294732,75.84620489,-21.27668166
-102.34813490,-63.14377549,-20.33609628,20.04486177,-13.42092414,2.52455163
0.52451575,0.38287813

>  <Name>
F0580-0570

>  <RI>
4.35633e+07

>  <Rbt.Current_Directory>
/home/adria/Escritorio/rDock_CMTR_LC/2pxcA_model/inputs_sah

>  <Rbt.Executable>
rbdock ($Id: //depot/dev/client3/rdock/2013.1/src/exe/rbdock.cxx#4 $)

>  <Rbt.Library>
libRbt.so (2013.1, Build901 2013/11/27)

>  <Rbt.Parameter_File>
/home/adria/Escritorio/rDock_2013.1_src/data/scripts/dock.prm

>  <Rbt.Receptor>
sah_rdock.prm

>  <SCORE>
-302.018

>  <SCORE.INTER>
-15.1564

>  <SCORE.INTER.CONST>
1

>  <SCORE.INTER.POLAR>
0

>  <SCORE.INTER.REPUL>
0

>  <SCORE.INTER.ROT>
8

>  <SCORE.INTER.VDW>
-28.5564

>  <SCORE.INTER.norm>
-0.43304

>  <SCORE.INTRA>
-286.863

>  <SCORE.INTRA.DIHEDRAL>
-6.98484

>  <SCORE.INTRA.DIHEDRAL.0>
12.5391

>  <SCORE.INTRA.POLAR>
0

>  <SCORE.INTRA.POLAR.0>
0

>  <SCORE.INTRA.REPUL>
0

>  <SCORE.INTRA.REPUL.0>
0

>  <SCORE.INTRA.VDW>
-283.371

>  <SCORE.INTRA.VDW.0>
281.478

>  <SCORE.INTRA.norm>
-8.19609

>  <SCORE.RESTR>
0

>  <SCORE.RESTR.CAVITY>
0

>  <SCORE.RESTR.norm>
0

>  <SCORE.SYSTEM>
0.00183285

>  <SCORE.SYSTEM.CONST>
0

>  <SCORE.SYSTEM.DIHEDRAL>
14.9993

>  <SCORE.SYSTEM.POLAR>
-4.65045

>  <SCORE.SYSTEM.REPUL>
0.162192

>  <SCORE.SYSTEM.VDW>
7.50276

>  <SCORE.SYSTEM.norm>
5.23671e-05

>  <SCORE.heavy>
35

>  <SCORE.norm>
-8.62908

$$$$
F0580-0570
  rDOCK(R)          3D
libRbt.so/2013.1/901 2013/11/27
 36 40  0  0  0  0  0  0  0  0999 V2000
  -20.8204   25.3872  -10.9260 C   0  0  0  0  0  0
  -21.1258   24.3728  -12.0146 C   0  0  0  0  0  0
  -20.2135   23.3039  -11.8989 O   0  0  0  0  0  0
  -20.5714   22.1714  -13.0539 C   0  0  0  0  0  0
  -19.8119   22.2282  -14.9084 C   0  0  0  0  0  0
  -18.5621   21.0358  -15.3539 C   0  0  0  0  0  0
  -18.0530   19.9291  -14.2005 C   0  0  0  0  0  0
  -18.4348   20.0227  -12.5911 C   0  0  0  0  0  0
  -19.6309   21.0724  -11.9570 C   0  0  0  0  0  0
  -17.7337   18.6859  -14.8082 N   0  3  0  0  0  0
  -16.5469   18.7955  -15.5240 C   0  0  0  0  0  0
  -15.7515   19.7305  -15.4693 O   0  0  0  0  0  0
  -16.3402   17.7161  -16.3931 C   0  0  0  0  0  0
  -17.1541   16.6405  -16.4852 C   0  0  0  0  0  0
  -18.3220   16.5296  -15.7559 N   0  0  0  0  0  0
  -18.5900   17.5463  -14.9796 C   0  0  0  0  0  0
  -20.0820   17.1884  -14.1108 S   0  0  0  0  0  0
  -20.8802   18.7430  -13.6942 C   0  0  0  0  0  0
  -22.1913   18.3651  -13.0903 C   0  0  0  0  0  0
  -22.1662   18.3761  -11.8478 O   0  0  0  0  0  0
  -23.3718   18.2193  -14.0900 N   0  0  0  0  0  0
  -24.7407   17.6745  -12.9754 C   0  0  0  0  0  0
  -26.0839   18.7767  -12.8560 C   0  0  0  0  0  0
  -26.7400   19.7254  -14.2137 C   0  0  0  0  0  0
  -25.6134   20.2144  -15.6410 C   0  0  0  0  0  0
  -23.9143   19.0567  -16.0453 C   0  0  0  0  0  0
  -24.4251   18.2531  -17.3768 C   0  0  0  0  0  0
  -25.5074   17.2880  -16.9457 C   0  0  0  0  0  0
  -16.6315   15.7621  -17.4462 C   0  0  0  0  0  0
  -15.5112   16.4111  -17.9838 C   0  0  0  0  0  0
  -15.3471   17.5933  -17.3061 N   0  0  0  0  0  0
  -14.6380   18.2951  -17.4731 H   0  0  0  0  0  0
  -14.7641   15.8888  -19.0336 C   0  0  0  0  0  0
  -15.1644   14.6510  -19.5355 C   0  0  0  0  0  0
  -16.2561   13.9647  -18.9996 C   0  0  0  0  0  0
  -17.0027   14.5071  -17.9504 C   0  0  0  0  0  0
  1  2  1  0  0  0
  2  3  1  0  0  0
  3  4  1  0  0  0
  4  5  2  0  0  0
  4  9  1  0  0  0
  5  6  1  0  0  0
  6  7  2  0  0  0
  7  8  1  0  0  0
  7 10  1  0  0  0
  8  9  2  0  0  0
 10 11  1  0  0  0
 10 16  1  0  0  0
 11 12  2  0  0  0
 13 11  1  0  0  0
 13 14  1  0  0  0
 13 31  1  0  0  0
 14 15  1  0  0  0
 14 29  1  0  0  0
 15 16  1  0  0  0
 16 17  1  0  0  0
 17 18  1  0  0  0
 18 19  1  0  0  0
 19 20  2  0  0  0
 19 21  1  0  0  0
 21 22  1  0  0  0
 21 26  1  0  0  0
 22 23  1  0  0  0
 23 24  1  0  0  0
 24 25  1  0  0  0
 25 26  1  0  0  0
 26 27  1  0  0  0
 27 28  1  0  0  0
 29 30  1  0  0  0
 29 36  1  0  0  0
 30 31  1  0  0  0
 30 33  1  0  0  0
 31 32  1  0  0  0
 33 34  1  0  0  0
 34 35  1  0  0  0
 35 36  1  0  0  0
M  END
>  <CHROM.0>
-56.48933787,-67.53360207,9.43588558,-55.22954016,-28.08746777,171.70947501
-158.05823174,-167.00155299

>  <CHROM.1>
178.25207265,88.06312167,72.28281991,31.89155403,174.42552193,98.30424479
177.26654722,47.51876812,-19.87261152,18.69464260,-15.02310255,-2.44322021
-0.11801635,-2.51245182

>  <Name>
F0580-0570

>  <RI>
4.35633e+07

>  <Rbt.Current_Directory>
/home/adria/Escritorio/rDock_CMTR_LC/2pxcA_model/inputs_sah

>  <Rbt.Executable>
rbdock ($Id: //depot/dev/client3/rdock/2013.1/src/exe/rbdock.cxx#4 $)

>  <Rbt.Library>
libRbt.so (2013.1, Build901 2013/11/27)

>  <Rbt.Parameter_File>
/home/adria/Escritorio/rDock_2013.1_src/data/scripts/dock.prm

>  <Rbt.Receptor>
sah_rdock.prm

>  <SCORE>
-304.52

>  <SCORE.INTER>
-11.5938

>  <SCORE.INTER.CONST>
1

>  <SCORE.INTER.POLAR>
0

>  <SCORE.INTER.REPUL>
0.0483818

>  <SCORE.INTER.ROT>
8

>  <SCORE.INTER.VDW>
-25.2357

>  <SCORE.INTER.norm>
-0.331252

>  <SCORE.INTRA>
-286.709

>  <SCORE.INTRA.DIHEDRAL>
-5.42176

>  <SCORE.INTRA.DIHEDRAL.0>
12.5391

>  <SCORE.INTRA.POLAR>
0

>  <SCORE.INTRA.POLAR.0>
0

>  <SCORE.INTRA.REPUL>
0

>  <SCORE.INTRA.REPUL.0>
0

>  <SCORE.INTRA.VDW>
-283.998

>  <SCORE.INTRA.VDW.0>
281.478

>  <SCORE.INTRA.norm>
-8.1917

>  <SCORE.RESTR>
0.00257176

>  <SCORE.RESTR.CAVITY>
0.00257176

>  <SCORE.RESTR.norm>
7.34788e-05

>  <SCORE.SYSTEM>
-6.21893

>  <SCORE.SYSTEM.CONST>
0

>  <SCORE.SYSTEM.DIHEDRAL>
9.26559

>  <SCORE.SYSTEM.POLAR>
-4.36879

>  <SCORE.SYSTEM.REPUL>
0.0273499

>  <SCORE.SYSTEM.VDW>
3.86541

>  <SCORE.SYSTEM.norm>
-0.177684

>  <SCORE.heavy>
35

>  <SCORE.norm>
-8.70056

$$$$
F0580-0570
  rDOCK(R)          3D
libRbt.so/2013.1/901 2013/11/27
 36 40  0  0  0  0  0  0  0  0999 V2000
  -26.0307   17.4035  -10.9705 C   0  0  0  0  0  0
  -24.6616   18.0607  -10.9443 C   0  0  0  0  0  0
  -24.8050   19.4090  -11.3316 O   0  0  0  0  0  0
  -23.2984   20.0700  -11.5256 C   0  0  0  0  0  0
  -21.6091   19.0729  -11.1117 C   0  0  0  0  0  0
  -20.5968   18.5117  -12.4692 C   0  0  0  0  0  0
  -21.1064   18.8177  -14.0379 C   0  0  0  0  0  0
  -22.6155   19.3760  -14.4322 C   0  0  0  0  0  0
  -23.7300   19.9937  -13.2873 C   0  0  0  0  0  0
  -19.9928   19.0487  -14.8885 N   0  3  0  0  0  0
  -19.5809   17.8548  -15.4700 C   0  0  0  0  0  0
  -20.1995   16.7932  -15.4611 O   0  0  0  0  0  0
  -18.3147   17.9527  -16.0621 C   0  0  0  0  0  0
  -17.5904   19.0917  -16.1368 C   0  0  0  0  0  0
  -18.0154   20.2793  -15.5734 N   0  0  0  0  0  0
  -19.1632   20.2187  -14.9513 C   0  0  0  0  0  0
  -19.5423   21.8329  -14.3517 S   0  0  0  0  0  0
  -21.0474   21.7342  -13.3757 C   0  0  0  0  0  0
  -20.6061   21.8518  -11.9551 C   0  0  0  0  0  0
  -19.5500   21.2365  -11.7303 O   0  0  0  0  0  0
  -21.4149   22.8517  -11.0833 N   0  0  0  0  0  0
  -20.7363   24.4745  -11.6484 C   0  0  0  0  0  0
  -21.8841   25.5290  -12.4253 C   0  0  0  0  0  0
  -23.5854   25.7152  -11.9307 C   0  0  0  0  0  0
  -24.4734   24.2859  -11.0856 C   0  0  0  0  0  0
  -23.3494   22.8555  -10.0457 C   0  0  0  0  0  0
  -23.6631   23.3095   -8.5046 C   0  0  0  0  0  0
  -25.0981   22.9410   -8.1986 C   0  0  0  0  0  0
  -16.3863   18.8162  -16.8018 C   0  0  0  0  0  0
  -16.3932   17.4350  -17.0421 C   0  0  0  0  0  0
  -17.5931   16.9389  -16.5971 N   0  0  0  0  0  0
  -17.8936   15.9731  -16.6125 H   0  0  0  0  0  0
  -15.3219   16.7604  -17.6166 C   0  0  0  0  0  0
  -14.2152   17.5283  -17.9767 C   0  0  0  0  0  0
  -14.1912   18.9107  -17.7802 C   0  0  0  0  0  0
  -15.2723   19.5732  -17.1931 C   0  0  0  0  0  0
  1  2  1  0  0  0
  2  3  1  0  0  0
  3  4  1  0  0  0
  4  5  2  0  0  0
  4  9  1  0  0  0
  5  6  1  0  0  0
  6  7  2  0  0  0
  7  8  1  0  0  0
  7 10  1  0  0  0
  8  9  2  0  0  0
 10 11  1  0  0  0
 10 16  1  0  0  0
 11 12  2  0  0  0
 13 11  1  0  0  0
 13 14  1  0  0  0
 13 31  1  0  0  0
 14 15  1  0  0  0
 14 29  1  0  0  0
 15 16  1  0  0  0
 16 17  1  0  0  0
 17 18  1  0  0  0
 18 19  1  0  0  0
 19 20  2  0  0  0
 19 21  1  0  0  0
 21 22  1  0  0  0
 21 26  1  0  0  0
 22 23  1  0  0  0
 23 24  1  0  0  0
 24 25  1  0  0  0
 25 26  1  0  0  0
 26 27  1  0  0  0
 27 28  1  0  0  0
 29 30  1  0  0  0
 29 36  1  0  0  0
 30 31  1  0  0  0
 30 33  1  0  0  0
 31 32  1  0  0  0
 33 34  1  0  0  0
 34 35  1  0  0  0
 35 36  1  0  0  0
M  END
>  <CHROM.0>
-62.03274405,-167.71853284,-46.62944952,65.77474611,168.72955546,-57.74889810
-156.21496661,-167.31356924

>  <CHROM.1>
-171.60765056,-4.31184654,91.55735114,9.69992457,105.78366697,-39.34452104
-76.88608064,-171.84811144,-20.44062747,20.25120955,-13.60065711,2.56563805
0.58393360,0.28731199

>  <Name>
F0580-0570

>  <RI>
4.35633e+07

>  <Rbt.Current_Directory>
/home/adria/Escritorio/rDock_CMTR_LC/2pxcA_model/inputs_sah

>  <Rbt.Executable>
rbdock ($Id: //depot/dev/client3/rdock/2013.1/src/exe/rbdock.cxx#4 $)

>  <Rbt.Library>
libRbt.so (2013.1, Build901 2013/11/27)

>  <Rbt.Parameter_File>
/home/adria/Escritorio/rDock_2013.1_src/data/scripts/dock.prm

>  <Rbt.Receptor>
sah_rdock.prm

>  <SCORE>
-302.74

>  <SCORE.INTER>
-15.1366

>  <SCORE.INTER.CONST>
1

>  <SCORE.INTER.POLAR>
0

>  <SCORE.INTER.REPUL>
0

>  <SCORE.INTER.ROT>
8

>  <SCORE.INTER.VDW>
-28.5366

>  <SCORE.INTER.norm>
-0.432475

>  <SCORE.INTRA>
-286.027

>  <SCORE.INTRA.DIHEDRAL>
-4.28775

>  <SCORE.INTRA.DIHEDRAL.0>
12.5391

>  <SCORE.INTRA.POLAR>
0

>  <SCORE.INTRA.POLAR.0>
0

>  <SCORE.INTRA.REPUL>
0

>  <SCORE.INTRA.REPUL.0>
0

>  <SCORE.INTRA.VDW>
-283.883

>  <SCORE.INTRA.VDW.0>
281.478

>  <SCORE.INTRA.norm>
-8.17219

>  <SCORE.RESTR>
0.0490939

>  <SCORE.RESTR.CAVITY>
0.0490939

>  <SCORE.RESTR.norm>
0.00140268

>  <SCORE.SYSTEM>
-1.62536

>  <SCORE.SYSTEM.CONST>
0

>  <SCORE.SYSTEM.DIHEDRAL>
3.40356

>  <SCORE.SYSTEM.POLAR>
-3.65272

>  <SCORE.SYSTEM.VDW>
9.09212

>  <SCORE.SYSTEM.norm>
-0.0464388

>  <SCORE.heavy>
35

>  <SCORE.norm>
-8.64971

$$$$
F0580-0570
  rDOCK(R)          3D
libRbt.so/2013.1/901 2013/11/27
 36 40  0  0  0  0  0  0  0  0999 V2000
  -17.6756   14.9232  -19.1890 C   0  0  0  0  0  0
  -18.2751   15.1678  -17.8150 C   0  0  0  0  0  0
  -18.3597   16.5597  -17.6050 O   0  0  0  0  0  0
  -18.8905   16.8334  -16.0598 C   0  0  0  0  0  0
  -17.9118   18.0081  -14.7631 C   0  0  0  0  0  0
  -18.6062   19.6029  -14.3668 C   0  0  0  0  0  0
  -20.0362   20.0691  -15.1097 C   0  0  0  0  0  0
  -20.7234   19.2686  -16.3869 C   0  0  0  0  0  0
  -20.2329   17.7125  -16.9089 C   0  0  0  0  0  0
  -20.8229   20.8571  -14.2281 N   0  3  0  0  0  0
  -20.1435   22.0239  -13.8962 C   0  0  0  0  0  0
  -19.1291   22.4518  -14.4418 O   0  0  0  0  0  0
  -20.7140   22.6867  -12.8014 C   0  0  0  0  0  0
  -21.8435   22.2927  -12.1716 C   0  0  0  0  0  0
  -22.5243   21.1423  -12.5200 N   0  0  0  0  0  0
  -21.9898   20.4550  -13.4948 C   0  0  0  0  0  0
  -23.0270   19.0649  -13.8123 S   0  0  0  0  0  0
  -24.3953   19.1033  -12.6486 C   0  0  0  0  0  0
  -25.4141   18.1657  -13.2050 C   0  0  0  0  0  0
  -26.1843   17.7256  -12.3346 O   0  0  0  0  0  0
  -25.4523   18.0612  -14.7547 N   0  0  0  0  0  0
  -26.6860   19.3666  -15.1872 C   0  0  0  0  0  0
  -26.0654   20.6899  -16.1342 C   0  0  0  0  0  0
  -24.8637   20.5261  -17.4391 C   0  0  0  0  0  0
  -23.6207   19.1125  -17.3911 C   0  0  0  0  0  0
  -24.0989   17.3658  -16.3370 C   0  0  0  0  0  0
  -24.4415   16.3629  -17.5845 C   0  0  0  0  0  0
  -25.5743   16.9803  -18.3745 C   0  0  0  0  0  0
  -22.1187   23.1964  -11.1345 C   0  0  0  0  0  0
  -21.0467   24.0997  -11.1242 C   0  0  0  0  0  0
  -20.2155   23.7746  -12.1670 N   0  0  0  0  0  0
  -19.3453   24.2278  -12.4133 H   0  0  0  0  0  0
  -20.9139   25.1074  -10.1755 C   0  0  0  0  0  0
  -21.9230   25.2071   -9.2184 C   0  0  0  0  0  0
  -23.0199   24.3430   -9.2220 C   0  0  0  0  0  0
  -23.1347   23.3293  -10.1767 C   0  0  0  0  0  0
  1  2  1  0  0  0
  2  3  1  0  0  0
  3  4  1  0  0  0
  4  5  2  0  0  0
  4  9  1  0  0  0
  5  6  1  0  0  0
  6  7  2  0  0  0
  7  8  1  0  0  0
  7 10  1  0  0  0
  8  9  2  0  0  0
 10 11  1  0  0  0
 10 16  1  0  0  0
 11 12  2  0  0  0
 13 11  1  0  0  0
 13 14  1  0  0  0
 13 31  1  0  0  0
 14 15  1  0  0  0
 14 29  1  0  0  0
 15 16  1  0  0  0
 16 17  1  0  0  0
 17 18  1  0  0  0
 18 19  1  0  0  0
 19 20  2  0  0  0
 19 21  1  0  0  0
 21 22  1  0  0  0
 21 26  1  0  0  0
 22 23  1  0  0  0
 23 24  1  0  0  0
 24 25  1  0  0  0
 25 26  1  0  0  0
 26 27  1  0  0  0
 27 28  1  0  0  0
 29 30  1  0  0  0
 29 36  1  0  0  0
 30 31  1  0  0  0
 30 33  1  0  0  0
 31 32  1  0  0  0
 33 34  1  0  0  0
 34 35  1  0  0  0
 35 36  1  0  0  0
M  END
>  <CHROM.0>
178.92039266,-169.50639147,-131.05768005,61.08868870,-30.34240671,-172.54223053
-156.49783902,-162.38223360

>  <CHROM.1>
-175.19844904,126.31552510,62.23345283,-176.48042085,164.21689247,156.47706811
-90.77834946,57.69054887,-22.05884273,19.99364323,-14.29642271,-1.49977635
0.08808316,0.74895137

>  <Name>
F0580-0570

>  <RI>
4.35633e+07

>  <Rbt.Current_Directory>
/home/adria/Escritorio/rDock_CMTR_LC/2pxcA_model/inputs_sah

>  <Rbt.Executable>
rbdock ($Id: //depot/dev/client3/rdock/2013.1/src/exe/rbdock.cxx#4 $)

>  <Rbt.Library>
libRbt.so (2013.1, Build901 2013/11/27)

>  <Rbt.Parameter_File>
/home/adria/Escritorio/rDock_2013.1_src/data/scripts/dock.prm

>  <Rbt.Receptor>
sah_rdock.prm

>  <SCORE>
-298.733

>  <SCORE.INTER>
-7.88193

>  <SCORE.INTER.CONST>
1

>  <SCORE.INTER.POLAR>
-0.358821

>  <SCORE.INTER.REPUL>
0.279749

>  <SCORE.INTER.ROT>
8

>  <SCORE.INTER.VDW>
-21.4607

>  <SCORE.INTER.norm>
-0.225198

>  <SCORE.INTRA>
-285.4

>  <SCORE.INTRA.DIHEDRAL>
-4.84043

>  <SCORE.INTRA.DIHEDRAL.0>
12.5391

>  <SCORE.INTRA.POLAR>
0

>  <SCORE.INTRA.POLAR.0>
0

>  <SCORE.INTRA.REPUL>
0

>  <SCORE.INTRA.REPUL.0>
0

>  <SCORE.INTRA.VDW>
-282.98

>  <SCORE.INTRA.VDW.0>
281.478

>  <SCORE.INTRA.norm>
-8.1543

>  <SCORE.RESTR>
0.126846

>  <SCORE.RESTR.CAVITY>
0.126846

>  <SCORE.RESTR.norm>
0.00362418

>  <SCORE.SYSTEM>
-5.57738

>  <SCORE.SYSTEM.CONST>
0

>  <SCORE.SYSTEM.DIHEDRAL>
9.15852

>  <SCORE.SYSTEM.POLAR>
-4.22697

>  <SCORE.SYSTEM.VDW>
4.21505

>  <SCORE.SYSTEM.norm>
-0.159354

>  <SCORE.heavy>
35

>  <SCORE.norm>
-8.53523

$$$$
F0580-0570
  rDOCK(R)          3D
libRbt.so/2013.1/901 2013/11/27
 36 40  0  0  0  0  0  0  0  0999 V2000
  -26.3615   17.8488  -11.5390 C   0  0  0  0  0  0
  -25.5748   17.6404  -12.8215 C   0  0  0  0  0  0
  -24.7121   16.5393  -12.6433 O   0  0  0  0  0  0
  -23.7397   16.4038  -13.9777 C   0  0  0  0  0  0
  -23.8816   17.6285  -15.5586 C   0  0  0  0  0  0
  -22.6013   18.8448  -15.8115 C   0  0  0  0  0  0
  -21.3417   18.9342  -14.7071 C   0  0  0  0  0  0
  -21.3284   18.1501  -13.2478 C   0  0  0  0  0  0
  -22.4439   16.9233  -12.8173 C   0  0  0  0  0  0
  -20.1320   19.2951  -15.3577 N   0  3  0  0  0  0
  -19.6757   18.2381  -16.1371 C   0  0  0  0  0  0
  -20.3097   17.2268  -16.4293 O   0  0  0  0  0  0
  -18.3472   18.4069  -16.5494 C   0  0  0  0  0  0
  -17.5992   19.5033  -16.2922 C   0  0  0  0  0  0
  -18.0665   20.5587  -15.5333 N   0  0  0  0  0  0
  -19.2804   20.4147  -15.0706 C   0  0  0  0  0  0
  -19.6988   21.8766  -14.1780 S   0  0  0  0  0  0
  -21.2975   21.6244  -13.3981 C   0  0  0  0  0  0
  -21.0638   21.8359  -11.9396 C   0  0  0  0  0  0
  -20.0934   21.1879  -11.5121 O   0  0  0  0  0  0
  -21.9276   22.9445  -11.2770 N   0  0  0  0  0  0
  -23.4103   21.9871  -10.7311 C   0  0  0  0  0  0
  -23.6678   21.9352   -9.0094 C   0  0  0  0  0  0
  -23.3756   23.2978   -7.8996 C   0  0  0  0  0  0
  -22.0768   24.5910   -8.3312 C   0  0  0  0  0  0
  -21.5667   24.8968  -10.3405 C   0  0  0  0  0  0
  -22.3475   26.3075  -10.6229 C   0  0  0  0  0  0
  -22.7013   26.3521  -12.0931 C   0  0  0  0  0  0
  -16.3304   19.3261  -16.8638 C   0  0  0  0  0  0
  -16.3334   18.0308  -17.3998 C   0  0  0  0  0  0
  -17.5858   17.5022  -17.2100 N   0  0  0  0  0  0
  -17.8993   16.5762  -17.4696 H   0  0  0  0  0  0
  -15.2140   17.4505  -17.9858 C   0  0  0  0  0  0
  -14.0593   18.2299  -18.0441 C   0  0  0  0  0  0
  -14.0342   19.5352  -17.5484 C   0  0  0  0  0  0
  -15.1650   20.1013  -16.9541 C   0  0  0  0  0  0
  1  2  1  0  0  0
  2  3  1  0  0  0
  3  4  1  0  0  0
  4  5  2  0  0  0
  4  9  1  0  0  0
  5  6  1  0  0  0
  6  7  2  0  0  0
  7  8  1  0  0  0
  7 10  1  0  0  0
  8  9  2  0  0  0
 10 11  1  0  0  0
 10 16  1  0  0  0
 11 12  2  0  0  0
 13 11  1  0  0  0
 13 14  1  0  0  0
 13 31  1  0  0  0
 14 15  1  0  0  0
 14 29  1  0  0  0
 15 16  1  0  0  0
 16 17  1  0  0  0
 17 18  1  0  0  0
 18 19  1  0  0  0
 19 20  2  0  0  0
 19 21  1  0  0  0
 21 22  1  0  0  0
 21 26  1  0  0  0
 22 23  1  0  0  0
 23 24  1  0  0  0
 24 25  1  0  0  0
 25 26  1  0  0  0
 26 27  1  0  0  0
 27 28  1  0  0  0
 29 30  1  0  0  0
 29 36  1  0  0  0
 30 31  1  0  0  0
 30 33  1  0  0  0
 31 32  1  0  0  0
 33 34  1  0  0  0
 34 35  1  0  0  0
 35 36  1  0  0  0
M  END
>  <CHROM.0>
-59.44234133,-70.02995712,-7.01883258,-62.64131230,168.04493012,-57.86054966
83.41636489,-165.07337106

>  <CHROM.1>
-174.16061282,-1.50266035,-71.17296792,10.61077450,122.50346809,-49.82197136
90.15922382,-35.20918312,-20.48744866,20.12780410,-13.91489054,2.40973610
0.49423536,0.54738715

>  <Name>
F0580-0570

>  <RI>
4.35633e+07

>  <Rbt.Current_Directory>
/home/adria/Escritorio/rDock_CMTR_LC/2pxcA_model/inputs_sah

>  <Rbt.Executable>
rbdock ($Id: //depot/dev/client3/rdock/2013.1/src/exe/rbdock.cxx#4 $)

>  <Rbt.Library>
libRbt.so (2013.1, Build901 2013/11/27)

>  <Rbt.Parameter_File>
/home/adria/Escritorio/rDock_2013.1_src/data/scripts/dock.prm

>  <Rbt.Receptor>
sah_rdock.prm

>  <SCORE>
-300.622

>  <SCORE.INTER>
-13.3855

>  <SCORE.INTER.CONST>
1

>  <SCORE.INTER.POLAR>
0

>  <SCORE.INTER.REPUL>
0.00502483

>  <SCORE.INTER.ROT>
8

>  <SCORE.INTER.VDW>
-26.8106

>  <SCORE.INTER.norm>
-0.382441

>  <SCORE.INTRA>
-285.188

>  <SCORE.INTRA.DIHEDRAL>
-2.44548

>  <SCORE.INTRA.DIHEDRAL.0>
12.5391

>  <SCORE.INTRA.POLAR>
0

>  <SCORE.INTRA.POLAR.0>
0

>  <SCORE.INTRA.REPUL>
0

>  <SCORE.INTRA.REPUL.0>
0

>  <SCORE.INTRA.VDW>
-283.965

>  <SCORE.INTRA.VDW.0>
281.478

>  <SCORE.INTRA.norm>
-8.14822

>  <SCORE.RESTR>
0.104723

>  <SCORE.RESTR.CAVITY>
0.104723

>  <SCORE.RESTR.norm>
0.00299208

>  <SCORE.SYSTEM>
-2.15374

>  <SCORE.SYSTEM.CONST>
0

>  <SCORE.SYSTEM.DIHEDRAL>
6.20505

>  <SCORE.SYSTEM.POLAR>
-4.46082

>  <SCORE.SYSTEM.REPUL>
0.0328061

>  <SCORE.SYSTEM.VDW>
9.7465

>  <SCORE.SYSTEM.norm>
-0.0615356

>  <SCORE.heavy>
35

>  <SCORE.norm>
-8.58921

$$$$
F0580-0570
  rDOCK(R)          3D
libRbt.so/2013.1/901 2013/11/27
 36 40  0  0  0  0  0  0  0  0999 V2000
  -25.1204   16.8459  -17.7286 C   0  0  0  0  0  0
  -25.0027   15.5050  -17.0249 C   0  0  0  0  0  0
  -25.0791   15.7215  -15.6336 O   0  0  0  0  0  0
  -23.6297   16.3286  -15.1092 C   0  0  0  0  0  0
  -22.7349   17.9056  -15.9644 C   0  0  0  0  0  0
  -22.7249   19.4588  -15.0868 C   0  0  0  0  0  0
  -23.4830   19.5480  -13.5929 C   0  0  0  0  0  0
  -24.4713   18.3677  -12.9809 C   0  0  0  0  0  0
  -24.6013   16.7955  -13.6485 C   0  0  0  0  0  0
  -22.7920   20.4447  -12.7353 N   0  3  0  0  0  0
  -23.3985   21.6954  -12.7645 C   0  0  0  0  0  0
  -24.4943   21.9581  -13.2544 O   0  0  0  0  0  0
  -22.5975   22.6960  -12.1982 C   0  0  0  0  0  0
  -21.3976   22.4774  -11.6148 C   0  0  0  0  0  0
  -20.8102   21.2279  -11.5723 N   0  0  0  0  0  0
  -21.4929   20.2740  -12.1487 C   0  0  0  0  0  0
  -20.6007   18.7670  -11.9440 S   0  0  0  0  0  0
  -19.1860   18.7928  -13.0510 C   0  0  0  0  0  0
  -19.2480   17.5050  -13.8022 C   0  0  0  0  0  0
  -20.0160   16.6815  -13.2764 O   0  0  0  0  0  0
  -18.5146   17.4929  -15.1720 N   0  0  0  0  0  0
  -19.8983   17.8588  -16.3401 C   0  0  0  0  0  0
  -19.7473   19.3509  -17.2256 C   0  0  0  0  0  0
  -18.2164   19.9979  -17.8672 C   0  0  0  0  0  0
  -16.5929   19.5732  -17.0131 C   0  0  0  0  0  0
  -16.4624   17.8144  -15.8816 C   0  0  0  0  0  0
  -15.5943   16.8783  -16.9060 C   0  0  0  0  0  0
  -15.5253   15.4880  -16.3136 C   0  0  0  0  0  0
  -20.8920   23.7021  -11.1539 C   0  0  0  0  0  0
  -21.8129   24.6735  -11.5704 C   0  0  0  0  0  0
  -22.8537   24.0260  -12.1878 N   0  0  0  0  0  0
  -23.6664   24.4520  -12.6137 H   0  0  0  0  0  0
  -21.6194   26.0359  -11.3716 C   0  0  0  0  0  0
  -20.4547   26.4150  -10.7052 C   0  0  0  0  0  0
  -19.5341   25.4692  -10.2492 C   0  0  0  0  0  0
  -19.7383   24.1038  -10.4648 C   0  0  0  0  0  0
  1  2  1  0  0  0
  2  3  1  0  0  0
  3  4  1  0  0  0
  4  5  2  0  0  0
  4  9  1  0  0  0
  5  6  1  0  0  0
  6  7  2  0  0  0
  7  8  1  0  0  0
  7 10  1  0  0  0
  8  9  2  0  0  0
 10 11  1  0  0  0
 10 16  1  0  0  0
 11 12  2  0  0  0
 13 11  1  0  0  0
 13 14  1  0  0  0
 13 31  1  0  0  0
 14 15  1  0  0  0
 14 29  1  0  0  0
 15 16  1  0  0  0
 16 17  1  0  0  0
 17 18  1  0  0  0
 18 19  1  0  0  0
 19 20  2  0  0  0
 19 21  1  0  0  0
 21 22  1  0  0  0
 21 26  1  0  0  0
 22 23  1  0  0  0
 23 24  1  0  0  0
 24 25  1  0  0  0
 25 26  1  0  0  0
 26 27  1  0  0  0
 27 28  1  0  0  0
 29 30  1  0  0  0
 29 36  1  0  0  0
 30 31  1  0  0  0
 30 33  1  0  0  0
 31 32  1  0  0  0
 33 34  1  0  0  0
 34 35  1  0  0  0
 35 36  1  0  0  0
M  END
>  <CHROM.0>
179.53037150,63.33647888,-164.74109301,61.52833363,-30.35543284,-178.78142027
-36.53584194,-159.23993255

>  <CHROM.1>
-76.41581072,51.11948055,96.90023400,110.82444578,-128.90119627,-15.22347321
-95.92597288,-57.32049189,-21.12228003,19.87846824,-13.82978915,1.44904395
-0.12421495,-2.57164831

>  <Name>
F0580-0570

>  <RI>
4.35633e+07

>  <Rbt.Current_Directory>
/home/adria/Escritorio/rDock_CMTR_LC/2pxcA_model/inputs_sah

>  <Rbt.Executable>
rbdock ($Id: //depot/dev/client3/rdock/2013.1/src/exe/rbdock.cxx#4 $)

>  <Rbt.Library>
libRbt.so (2013.1, Build901 2013/11/27)

>  <Rbt.Parameter_File>
/home/adria/Escritorio/rDock_2013.1_src/data/scripts/dock.prm

>  <Rbt.Receptor>
sah_rdock.prm

>  <SCORE>
-295.463

>  <SCORE.INTER>
-6.90207

>  <SCORE.INTER.CONST>
1

>  <SCORE.INTER.POLAR>
0

>  <SCORE.INTER.REPUL>
0.319262

>  <SCORE.INTER.ROT>
8

>  <SCORE.INTER.VDW>
-21.8984

>  <SCORE.INTER.norm>
-0.197202

>  <SCORE.INTRA>
-283.149

>  <SCORE.INTRA.DIHEDRAL>
-3.93272

>  <SCORE.INTRA.DIHEDRAL.0>
12.5391

>  <SCORE.INTRA.POLAR>
0

>  <SCORE.INTRA.POLAR.0>
0

>  <SCORE.INTRA.REPUL>
0

>  <SCORE.INTRA.REPUL.0>
0

>  <SCORE.INTRA.VDW>
-281.182

>  <SCORE.INTRA.VDW.0>
281.478

>  <SCORE.INTRA.norm>
-8.08996

>  <SCORE.RESTR>
1.20101

>  <SCORE.RESTR.CAVITY>
1.20101

>  <SCORE.RESTR.norm>
0.0343145

>  <SCORE.SYSTEM>
-6.61345

>  <SCORE.SYSTEM.CONST>
0

>  <SCORE.SYSTEM.DIHEDRAL>
5.94793

>  <SCORE.SYSTEM.POLAR>
-3.64892

>  <SCORE.SYSTEM.VDW>
2.81892

>  <SCORE.SYSTEM.norm>
-0.188956

>  <SCORE.heavy>
35

>  <SCORE.norm>
-8.44181

$$$$
F0580-0570
  rDOCK(R)          3D
libRbt.so/2013.1/901 2013/11/27
 36 40  0  0  0  0  0  0  0  0999 V2000
  -22.4088   24.2388  -12.8131 C   0  0  0  0  0  0
  -21.2980   23.6771  -11.9425 C   0  0  0  0  0  0
  -20.1488   23.5022  -12.7409 O   0  0  0  0  0  0
  -20.4543   22.3210  -13.8616 C   0  0  0  0  0  0
  -19.4722   22.1921  -15.6046 C   0  0  0  0  0  0
  -18.2786   20.8830  -15.8149 C   0  0  0  0  0  0
  -18.0059   19.8255  -14.5416 C   0  0  0  0  0  0
  -18.5722   20.0592  -13.0024 C   0  0  0  0  0  0
  -19.7472   21.2355  -12.5898 C   0  0  0  0  0  0
  -17.7172   18.5226  -15.0277 N   0  3  0  0  0  0
  -16.4743   18.5104  -15.6507 C   0  0  0  0  0  0
  -15.6299   19.4017  -15.6006 O   0  0  0  0  0  0
  -16.2675   17.3563  -16.4179 C   0  0  0  0  0  0
  -17.1359   16.3232  -16.4962 C   0  0  0  0  0  0
  -18.3611   16.3342  -15.8582 N   0  0  0  0  0  0
  -18.6256   17.4219  -15.1835 C   0  0  0  0  0  0
  -20.1991   17.2158  -14.4151 S   0  0  0  0  0  0
  -21.1843   18.6821  -14.7425 C   0  0  0  0  0  0
  -22.4725   18.4620  -14.0222 C   0  0  0  0  0  0
  -22.3392   18.4844  -12.7868 O   0  0  0  0  0  0
  -23.7436   18.4394  -14.9155 N   0  0  0  0  0  0
  -25.0080   19.1719  -13.7851 C   0  0  0  0  0  0
  -25.6898   20.6845  -14.3149 C   0  0  0  0  0  0
  -26.0759   21.0844  -16.0074 C   0  0  0  0  0  0
  -25.1015   20.2783  -17.4025 C   0  0  0  0  0  0
  -24.1767   18.4280  -17.0675 C   0  0  0  0  0  0
  -25.2005   17.4442  -17.8821 C   0  0  0  0  0  0
  -24.5642   16.0736  -17.9525 C   0  0  0  0  0  0
  -16.5955   15.3447  -17.3438 C   0  0  0  0  0  0
  -15.3996   15.8869  -17.8349 C   0  0  0  0  0  0
  -15.2164   17.1079  -17.2354 N   0  0  0  0  0  0
  -14.4551   17.7544  -17.3955 H   0  0  0  0  0  0
  -14.6072   15.2435  -18.7790 C   0  0  0  0  0  0
  -15.0424   13.9940  -19.2189 C   0  0  0  0  0  0
  -16.2120   13.4130  -18.7244 C   0  0  0  0  0  0
  -17.0026   14.0762  -17.7825 C   0  0  0  0  0  0
  1  2  1  0  0  0
  2  3  1  0  0  0
  3  4  1  0  0  0
  4  5  2  0  0  0
  4  9  1  0  0  0
  5  6  1  0  0  0
  6  7  2  0  0  0
  7  8  1  0  0  0
  7 10  1  0  0  0
  8  9  2  0  0  0
 10 11  1  0  0  0
 10 16  1  0  0  0
 11 12  2  0  0  0
 13 11  1  0  0  0
 13 14  1  0  0  0
 13 31  1  0  0  0
 14 15  1  0  0  0
 14 29  1  0  0  0
 15 16  1  0  0  0
 16 17  1  0  0  0
 17 18  1  0  0  0
 18 19  1  0  0  0
 19 20  2  0  0  0
 19 21  1  0  0  0
 21 22  1  0  0  0
 21 26  1  0  0  0
 22 23  1  0  0  0
 23 24  1  0  0  0
 24 25  1  0  0  0
 25 26  1  0  0  0
 26 27  1  0  0  0
 27 28  1  0  0  0
 29 30  1  0  0  0
 29 36  1  0  0  0
 30 31  1  0  0  0
 30 33  1  0  0  0
 31 32  1  0  0  0
 33 34  1  0  0  0
 34 35  1  0  0  0
 35 36  1  0  0  0
M  END
>  <CHROM.0>
-179.07373527,-73.65025376,-31.39296174,62.29423519,-29.88909428,60.30017219
81.49014584,-50.11553436

>  <CHROM.1>
-66.31283510,155.76913093,69.37020618,53.38555556,-177.83564880,68.43138281
-146.91914221,-72.99039633,-19.88862710,18.56853402,-15.53428612,-2.45762524
0.04424103,-2.54317006

>  <Name>
F0580-0570

>  <RI>
4.35633e+07

>  <Rbt.Current_Directory>
/home/adria/Escritorio/rDock_CMTR_LC/2pxcA_model/inputs_sah

>  <Rbt.Executable>
rbdock ($Id: //depot/dev/client3/rdock/2013.1/src/exe/rbdock.cxx#4 $)

>  <Rbt.Library>
libRbt.so (2013.1, Build901 2013/11/27)

>  <Rbt.Parameter_File>
/home/adria/Escritorio/rDock_2013.1_src/data/scripts/dock.prm

>  <Rbt.Receptor>
sah_rdock.prm

>  <SCORE>
-303.168

>  <SCORE.INTER>
-12.7221

>  <SCORE.INTER.CONST>
1

>  <SCORE.INTER.POLAR>
0

>  <SCORE.INTER.REPUL>
0.245179

>  <SCORE.INTER.ROT>
8

>  <SCORE.INTER.VDW>
-27.348

>  <SCORE.INTER.norm>
-0.363489

>  <SCORE.INTRA>
-285.888

>  <SCORE.INTRA.DIHEDRAL>
-4.94307

>  <SCORE.INTRA.DIHEDRAL.0>
12.5391

>  <SCORE.INTRA.POLAR>
0

>  <SCORE.INTRA.POLAR.0>
0

>  <SCORE.INTRA.REPUL>
0

>  <SCORE.INTRA.REPUL.0>
0

>  <SCORE.INTRA.VDW>
-283.417

>  <SCORE.INTRA.VDW.0>
281.478

>  <SCORE.INTRA.norm>
-8.16824

>  <SCORE.RESTR>
0

>  <SCORE.RESTR.CAVITY>
0

>  <SCORE.RESTR.norm>
0

>  <SCORE.SYSTEM>
-4.55767

>  <SCORE.SYSTEM.CONST>
0

>  <SCORE.SYSTEM.DIHEDRAL>
10.0496

>  <SCORE.SYSTEM.POLAR>
-3.65581

>  <SCORE.SYSTEM.REPUL>
0.0511421

>  <SCORE.SYSTEM.VDW>
2.59158

>  <SCORE.SYSTEM.norm>
-0.130219

>  <SCORE.heavy>
35

>  <SCORE.norm>
-8.66194

$$$$
