F5854-0433
  rDOCK(R)          3D
libRbt.so/2013.1/901 2013/11/27
 27 29  0  0  0  0  0  0  0  0999 V2000
  -16.8082   17.1249  -18.3238 F   0  0  0  0  0  0
  -17.5346   17.5023  -17.2631 C   0  0  0  0  0  0
  -17.3394   19.1001  -16.6750 C   0  0  0  0  0  0
  -18.2073   19.7622  -15.0297 C   0  0  0  0  0  0
  -19.2542   18.5970  -14.1389 C   0  0  0  0  0  0
  -19.6697   19.2933  -12.9194 C   0  0  0  0  0  0
  -21.0290   18.4006  -12.1683 S   0  0  0  0  0  0
  -21.7828   17.8014  -13.2529 O   0  0  0  0  0  0
  -20.5909   17.5683  -11.0664 O   0  0  0  0  0  0
  -21.9103   19.6710  -11.5331 N   0  0  0  0  0  0
  -22.7283   20.5691  -12.4512 C   0  0  0  0  0  0
  -22.2310   22.0353  -12.7906 C   0  0  0  0  0  0
  -21.6839   23.1997  -11.6588 C   0  0  0  0  0  0
  -22.3907   25.0143  -11.2018 C   0  0  0  0  0  0
  -21.4850   26.3488  -10.5861 C   0  0  0  0  0  0
  -19.8476   26.0426  -10.2747 C   0  0  0  0  0  0
  -19.0317   24.4794  -10.5866 C   0  0  0  0  0  0
  -19.8844   23.0177  -11.2785 C   0  0  0  0  0  0
  -21.9827   19.7284  -10.0365 C   0  0  0  0  0  0
  -23.2481   20.2803   -9.3591 C   0  0  0  0  0  0
  -23.4570   21.6116   -9.4890 N   0  0  0  0  0  0
  -24.5687   22.1456   -8.9265 C   0  0  0  0  0  0
  -25.5570   21.4133   -8.2951 C   0  0  0  0  0  0
  -25.3509   20.0528   -8.1540 C   0  0  0  0  0  0
  -24.1525   19.4941   -8.6226 C   0  0  0  0  0  0
  -19.3391   16.8995  -14.7849 C   0  0  0  0  0  0
  -18.4893   16.4177  -16.3050 C   0  0  0  0  0  0
  1  2  1  0  0  0
  2  3  2  0  0  0
  2 27  1  0  0  0
  3  4  1  0  0  0
  4  5  2  0  0  0
  5  6  1  0  0  0
  5 26  1  0  0  0
  6  7  1  0  0  0
  7  8  2  0  0  0
  7  9  2  0  0  0
  7 10  1  0  0  0
 10 11  1  0  0  0
 10 19  1  0  0  0
 11 12  1  0  0  0
 12 13  1  0  0  0
 13 14  2  0  0  0
 13 18  1  0  0  0
 14 15  1  0  0  0
 15 16  2  0  0  0
 16 17  1  0  0  0
 17 18  2  0  0  0
 19 20  1  0  0  0
 20 21  2  0  0  0
 20 25  1  0  0  0
 21 22  1  0  0  0
 22 23  2  0  0  0
 23 24  1  0  0  0
 24 25  2  0  0  0
 26 27  2  0  0  0
M  END
>  <CHROM.0>
-178.75971051,-70.53226919,-163.22781155,64.76184932,168.34549781,-176.00036449
71.00083237,-161.05967688

>  <CHROM.1>
165.81275670,-32.24235336,74.31925969,-105.71731516,-147.36803662,-48.08448434
-118.82351964,-70.07833392,-21.04711691,20.30838644,-12.19783105,-0.75456032
0.77783979,0.29171517

>  <Name>
F5854-0433

>  <RI>
3.16808e+07

>  <Rbt.Current_Directory>
/home/adria/Escritorio/rDock_CMTR_LC/2pxcA_model/inputs_sah

>  <Rbt.Executable>
rbdock ($Id: //depot/dev/client3/rdock/2013.1/src/exe/rbdock.cxx#4 $)

>  <Rbt.Library>
libRbt.so (2013.1, Build901 2013/11/27)

>  <Rbt.Parameter_File>
/home/adria/Escritorio/rDock_2013.1_src/data/scripts/dock.prm

>  <Rbt.Receptor>
sah_rdock.prm

>  <SCORE>
-296.158

>  <SCORE.INTER>
-12.4008

>  <SCORE.INTER.CONST>
1

>  <SCORE.INTER.POLAR>
-0.847077

>  <SCORE.INTER.REPUL>
0.0258825

>  <SCORE.INTER.ROT>
8

>  <SCORE.INTER.VDW>
-23.0501

>  <SCORE.INTER.norm>
-0.459288

>  <SCORE.INTRA>
-282.322

>  <SCORE.INTRA.DIHEDRAL>
0.73857

>  <SCORE.INTRA.DIHEDRAL.0>
9.14453

>  <SCORE.INTRA.POLAR>
0

>  <SCORE.INTRA.POLAR.0>
0

>  <SCORE.INTRA.REPUL>
0

>  <SCORE.INTRA.REPUL.0>
0

>  <SCORE.INTRA.VDW>
-282.691

>  <SCORE.INTRA.VDW.0>
279.703

>  <SCORE.INTRA.norm>
-10.4564

>  <SCORE.RESTR>
0

>  <SCORE.RESTR.CAVITY>
0

>  <SCORE.RESTR.norm>
0

>  <SCORE.SYSTEM>
-1.43552

>  <SCORE.SYSTEM.CONST>
0

>  <SCORE.SYSTEM.DIHEDRAL>
2.78916

>  <SCORE.SYSTEM.POLAR>
-3.45335

>  <SCORE.SYSTEM.REPUL>
0.0338342

>  <SCORE.SYSTEM.VDW>
8.74213

>  <SCORE.SYSTEM.norm>
-0.0531673

>  <SCORE.heavy>
27

>  <SCORE.norm>
-10.9688

$$$$
F5854-0433
  rDOCK(R)          3D
libRbt.so/2013.1/901 2013/11/27
 27 29  0  0  0  0  0  0  0  0999 V2000
  -23.1260   21.5951   -9.7368 F   0  0  0  0  0  0
  -22.2483   20.9061  -10.4783 C   0  0  0  0  0  0
  -21.2213   21.7788  -11.5369 C   0  0  0  0  0  0
  -19.9907   20.9094  -12.8131 C   0  0  0  0  0  0
  -19.9738   19.1076  -12.8252 C   0  0  0  0  0  0
  -19.0809   18.7293  -13.9226 C   0  0  0  0  0  0
  -20.0558   18.4290  -15.3952 S   0  0  0  0  0  0
  -20.7539   17.1754  -15.1832 O   0  0  0  0  0  0
  -20.8089   19.5993  -15.7975 O   0  0  0  0  0  0
  -18.8409   18.1895  -16.5180 N   0  0  0  0  0  0
  -18.6036   16.8044  -17.1045 C   0  0  0  0  0  0
  -17.4348   15.8882  -16.5507 C   0  0  0  0  0  0
  -16.7316   14.5533  -17.3630 C   0  0  0  0  0  0
  -16.2460   14.2989  -19.2866 C   0  0  0  0  0  0
  -16.1717   12.8013  -20.1422 C   0  0  0  0  0  0
  -16.4715   11.4129  -19.2178 C   0  0  0  0  0  0
  -16.8931   11.4256  -17.4775 C   0  0  0  0  0  0
  -17.0433   12.9554  -16.4878 C   0  0  0  0  0  0
  -18.1673   19.4305  -17.0223 C   0  0  0  0  0  0
  -16.6323   19.5206  -17.0048 C   0  0  0  0  0  0
  -16.1135   20.7440  -16.7458 N   0  0  0  0  0  0
  -14.7649   20.8735  -16.6999 C   0  0  0  0  0  0
  -13.8720   19.8245  -16.8169 C   0  0  0  0  0  0
  -14.3922   18.5713  -17.0855 C   0  0  0  0  0  0
  -15.7776   18.4320  -17.2557 C   0  0  0  0  0  0
  -21.1541   18.2613  -11.7311 C   0  0  0  0  0  0
  -22.2347   19.1773  -10.6094 C   0  0  0  0  0  0
  1  2  1  0  0  0
  2  3  2  0  0  0
  2 27  1  0  0  0
  3  4  1  0  0  0
  4  5  2  0  0  0
  5  6  1  0  0  0
  5 26  1  0  0  0
  6  7  1  0  0  0
  7  8  2  0  0  0
  7  9  2  0  0  0
  7 10  1  0  0  0
 10 11  1  0  0  0
 10 19  1  0  0  0
 11 12  1  0  0  0
 12 13  1  0  0  0
 13 14  2  0  0  0
 13 18  1  0  0  0
 14 15  1  0  0  0
 15 16  2  0  0  0
 16 17  1  0  0  0
 17 18  2  0  0  0
 19 20  1  0  0  0
 20 21  2  0  0  0
 20 25  1  0  0  0
 21 22  1  0  0  0
 22 23  2  0  0  0
 23 24  1  0  0  0
 24 25  2  0  0  0
 26 27  2  0  0  0
M  END
>  <CHROM.0>
-60.74451931,-75.94235795,-45.03088075,-61.21838922,29.37330536,56.61764334
-158.49452271,-165.74984322

>  <CHROM.1>
-95.04097429,-72.40204606,110.18969958,-100.02692402,129.21011361,-160.46881474
40.11287527,-144.89008774,-18.51408686,17.92626481,-15.43945846,2.28573751
0.67362910,0.33418280

>  <Name>
F5854-0433

>  <RI>
3.16808e+07

>  <Rbt.Current_Directory>
/home/adria/Escritorio/rDock_CMTR_LC/2pxcA_model/inputs_sah

>  <Rbt.Executable>
rbdock ($Id: //depot/dev/client3/rdock/2013.1/src/exe/rbdock.cxx#4 $)

>  <Rbt.Library>
libRbt.so (2013.1, Build901 2013/11/27)

>  <Rbt.Parameter_File>
/home/adria/Escritorio/rDock_2013.1_src/data/scripts/dock.prm

>  <Rbt.Receptor>
sah_rdock.prm

>  <SCORE>
-289.835

>  <SCORE.INTER>
-12.1511

>  <SCORE.INTER.CONST>
1

>  <SCORE.INTER.POLAR>
-0.382709

>  <SCORE.INTER.REPUL>
0

>  <SCORE.INTER.ROT>
8

>  <SCORE.INTER.VDW>
-24.2499

>  <SCORE.INTER.norm>
-0.450041

>  <SCORE.INTRA>
-282.06

>  <SCORE.INTRA.DIHEDRAL>
0.263055

>  <SCORE.INTRA.DIHEDRAL.0>
9.14453

>  <SCORE.INTRA.POLAR>
0

>  <SCORE.INTRA.POLAR.0>
0

>  <SCORE.INTRA.REPUL>
0

>  <SCORE.INTRA.REPUL.0>
0

>  <SCORE.INTRA.VDW>
-282.192

>  <SCORE.INTRA.VDW.0>
279.703

>  <SCORE.INTRA.norm>
-10.4467

>  <SCORE.RESTR>
0

>  <SCORE.RESTR.CAVITY>
0

>  <SCORE.RESTR.norm>
0

>  <SCORE.SYSTEM>
4.37693

>  <SCORE.SYSTEM.CONST>
0

>  <SCORE.SYSTEM.DIHEDRAL>
6.78073

>  <SCORE.SYSTEM.POLAR>
-3.80421

>  <SCORE.SYSTEM.REPUL>
0.0433612

>  <SCORE.SYSTEM.VDW>
13.7041

>  <SCORE.SYSTEM.norm>
0.162109

>  <SCORE.heavy>
27

>  <SCORE.norm>
-10.7346

$$$$
F5854-0433
  rDOCK(R)          3D
libRbt.so/2013.1/901 2013/11/27
 27 29  0  0  0  0  0  0  0  0999 V2000
  -16.8707   16.4881  -18.8898 F   0  0  0  0  0  0
  -17.0386   17.2556  -17.8046 C   0  0  0  0  0  0
  -18.3624   16.9171  -16.7702 C   0  0  0  0  0  0
  -18.8465   18.0477  -15.2254 C   0  0  0  0  0  0
  -17.8128   19.4919  -14.9209 C   0  0  0  0  0  0
  -18.4499   20.2057  -13.8121 C   0  0  0  0  0  0
  -19.8880   21.0797  -14.4261 S   0  0  0  0  0  0
  -19.3947   22.1463  -15.2763 O   0  0  0  0  0  0
  -20.8969   20.1753  -14.9388 O   0  0  0  0  0  0
  -20.4675   21.7432  -13.0056 N   0  0  0  0  0  0
  -20.5406   20.8984  -11.7409 C   0  0  0  0  0  0
  -21.6295   19.7550  -11.6016 C   0  0  0  0  0  0
  -23.3287   19.9756  -11.6211 C   0  0  0  0  0  0
  -24.5590   20.5388  -13.0943 C   0  0  0  0  0  0
  -26.0717   21.3523  -12.9203 C   0  0  0  0  0  0
  -26.5796   21.6232  -11.3264 C   0  0  0  0  0  0
  -25.6389   21.1693   -9.8719 C   0  0  0  0  0  0
  -24.0077   20.3466   -9.9426 C   0  0  0  0  0  0
  -20.7112   23.2224  -13.0304 C   0  0  0  0  0  0
  -22.1231   23.7632  -12.7499 C   0  0  0  0  0  0
  -22.5730   24.7148  -13.6013 N   0  0  0  0  0  0
  -23.8198   25.2113  -13.4093 C   0  0  0  0  0  0
  -24.7061   24.7559  -12.4510 C   0  0  0  0  0  0
  -24.2543   23.7864  -11.5739 C   0  0  0  0  0  0
  -22.9281   23.3411  -11.6764 C   0  0  0  0  0  0
  -16.4819   19.8238  -16.1145 C   0  0  0  0  0  0
  -16.1443   18.7084  -17.4954 C   0  0  0  0  0  0
  1  2  1  0  0  0
  2  3  2  0  0  0
  2 27  1  0  0  0
  3  4  1  0  0  0
  4  5  2  0  0  0
  5  6  1  0  0  0
  5 26  1  0  0  0
  6  7  1  0  0  0
  7  8  2  0  0  0
  7  9  2  0  0  0
  7 10  1  0  0  0
 10 11  1  0  0  0
 10 19  1  0  0  0
 11 12  1  0  0  0
 12 13  1  0  0  0
 13 14  2  0  0  0
 13 18  1  0  0  0
 14 15  1  0  0  0
 15 16  2  0  0  0
 16 17  1  0  0  0
 17 18  2  0  0  0
 19 20  1  0  0  0
 20 21  2  0  0  0
 20 25  1  0  0  0
 21 22  1  0  0  0
 22 23  2  0  0  0
 23 24  1  0  0  0
 24 25  2  0  0  0
 26 27  2  0  0  0
M  END
>  <CHROM.0>
-179.97606282,66.03976998,72.59958690,62.52723951,-30.70054560,59.49318068
-35.67320646,-162.69100014

>  <CHROM.1>
-76.30216398,-68.80811106,-44.40087637,-72.21874380,120.60122683,-61.73318460
67.95129023,-133.86759542,-21.11411332,20.94148830,-13.79771343,0.49754605
-0.61103073,-3.09685227

>  <Name>
F5854-0433

>  <RI>
3.16808e+07

>  <Rbt.Current_Directory>
/home/adria/Escritorio/rDock_CMTR_LC/2pxcA_model/inputs_sah

>  <Rbt.Executable>
rbdock ($Id: //depot/dev/client3/rdock/2013.1/src/exe/rbdock.cxx#4 $)

>  <Rbt.Library>
libRbt.so (2013.1, Build901 2013/11/27)

>  <Rbt.Parameter_File>
/home/adria/Escritorio/rDock_2013.1_src/data/scripts/dock.prm

>  <Rbt.Receptor>
sah_rdock.prm

>  <SCORE>
-301.771

>  <SCORE.INTER>
-10.7142

>  <SCORE.INTER.CONST>
1

>  <SCORE.INTER.POLAR>
-0.894427

>  <SCORE.INTER.REPUL>
0

>  <SCORE.INTER.ROT>
8

>  <SCORE.INTER.VDW>
-21.0731

>  <SCORE.INTER.norm>
-0.396822

>  <SCORE.INTRA>
-284.047

>  <SCORE.INTRA.DIHEDRAL>
-0.485614

>  <SCORE.INTRA.DIHEDRAL.0>
9.14453

>  <SCORE.INTRA.POLAR>
0

>  <SCORE.INTRA.POLAR.0>
0

>  <SCORE.INTRA.REPUL>
0

>  <SCORE.INTRA.REPUL.0>
0

>  <SCORE.INTRA.VDW>
-283.805

>  <SCORE.INTRA.VDW.0>
279.703

>  <SCORE.INTRA.norm>
-10.5203

>  <SCORE.RESTR>
0

>  <SCORE.RESTR.CAVITY>
0

>  <SCORE.RESTR.norm>
0

>  <SCORE.SYSTEM>
-7.00897

>  <SCORE.SYSTEM.CONST>
0

>  <SCORE.SYSTEM.DIHEDRAL>
5.75437

>  <SCORE.SYSTEM.POLAR>
-3.74048

>  <SCORE.SYSTEM.VDW>
2.83146

>  <SCORE.SYSTEM.norm>
-0.259592

>  <SCORE.heavy>
27

>  <SCORE.norm>
-11.1767

$$$$
F5854-0433
  rDOCK(R)          3D
libRbt.so/2013.1/901 2013/11/27
 27 29  0  0  0  0  0  0  0  0999 V2000
  -18.2340   19.1174  -18.4639 F   0  0  0  0  0  0
  -18.7490   19.3544  -17.2500 C   0  0  0  0  0  0
  -17.6676   19.5379  -15.9332 C   0  0  0  0  0  0
  -18.2637   19.7276  -14.0604 C   0  0  0  0  0  0
  -20.0419   19.7097  -13.7689 C   0  0  0  0  0  0
  -20.2029   19.7465  -12.3137 C   0  0  0  0  0  0
  -21.2480   18.3836  -11.8045 S   0  0  0  0  0  0
  -21.6787   17.7142  -13.0170 O   0  0  0  0  0  0
  -20.6470   17.6045  -10.7412 O   0  0  0  0  0  0
  -22.5426   19.2207  -11.1586 N   0  0  0  0  0  0
  -23.9062   19.1600  -11.8336 C   0  0  0  0  0  0
  -24.2263   20.0852  -13.0801 C   0  0  0  0  0  0
  -23.9654   21.7763  -13.1716 C   0  0  0  0  0  0
  -22.2827   22.8503  -13.0438 C   0  0  0  0  0  0
  -22.1395   24.4817  -12.4978 C   0  0  0  0  0  0
  -23.5960   25.2549  -12.1072 C   0  0  0  0  0  0
  -25.2078   24.4783  -12.1830 C   0  0  0  0  0  0
  -25.4681   22.7449  -12.7026 C   0  0  0  0  0  0
  -22.3088   19.8451   -9.8156 C   0  0  0  0  0  0
  -23.2345   20.9741   -9.3327 C   0  0  0  0  0  0
  -23.0507   22.1816   -9.9165 N   0  0  0  0  0  0
  -23.8541   23.2064   -9.5399 C   0  0  0  0  0  0
  -24.9113   23.0902   -8.6566 C   0  0  0  0  0  0
  -25.1049   21.8613   -8.0519 C   0  0  0  0  0  0
  -24.2134   20.8159   -8.3350 C   0  0  0  0  0  0
  -21.1141   19.4264  -15.2098 C   0  0  0  0  0  0
  -20.4399   19.2625  -16.8782 C   0  0  0  0  0  0
  1  2  1  0  0  0
  2  3  2  0  0  0
  2 27  1  0  0  0
  3  4  1  0  0  0
  4  5  2  0  0  0
  5  6  1  0  0  0
  5 26  1  0  0  0
  6  7  1  0  0  0
  7  8  2  0  0  0
  7  9  2  0  0  0
  7 10  1  0  0  0
 10 11  1  0  0  0
 10 19  1  0  0  0
 11 12  1  0  0  0
 12 13  1  0  0  0
 13 14  2  0  0  0
 13 18  1  0  0  0
 14 15  1  0  0  0
 15 16  2  0  0  0
 16 17  1  0  0  0
 17 18  2  0  0  0
 19 20  1  0  0  0
 20 21  2  0  0  0
 20 25  1  0  0  0
 21 22  1  0  0  0
 22 23  2  0  0  0
 23 24  1  0  0  0
 24 25  2  0  0  0
 26 27  2  0  0  0
M  END
>  <CHROM.0>
-60.68574013,68.74798438,-48.52621048,-60.19501772,-29.96507854,-58.91990528
-171.61817028,-156.12683060

>  <CHROM.1>
-126.49019692,-3.52298919,113.27428357,-81.57152047,161.04979105,-49.92245392
61.58075441,-74.46405409,-22.05308206,20.59753835,-12.43244149,0.23077458
0.91170562,-0.80027294

>  <Name>
F5854-0433

>  <RI>
3.16808e+07

>  <Rbt.Current_Directory>
/home/adria/Escritorio/rDock_CMTR_LC/2pxcA_model/inputs_sah

>  <Rbt.Executable>
rbdock ($Id: //depot/dev/client3/rdock/2013.1/src/exe/rbdock.cxx#4 $)

>  <Rbt.Library>
libRbt.so (2013.1, Build901 2013/11/27)

>  <Rbt.Parameter_File>
/home/adria/Escritorio/rDock_2013.1_src/data/scripts/dock.prm

>  <Rbt.Receptor>
sah_rdock.prm

>  <SCORE>
-299.112

>  <SCORE.INTER>
-10.0289

>  <SCORE.INTER.CONST>
1

>  <SCORE.INTER.POLAR>
-0.877274

>  <SCORE.INTER.REPUL>
0

>  <SCORE.INTER.ROT>
8

>  <SCORE.INTER.VDW>
-20.4461

>  <SCORE.INTER.norm>
-0.37144

>  <SCORE.INTRA>
-282.834

>  <SCORE.INTRA.DIHEDRAL>
3.25302

>  <SCORE.INTRA.DIHEDRAL.0>
9.14453

>  <SCORE.INTRA.POLAR>
0

>  <SCORE.INTRA.POLAR.0>
0

>  <SCORE.INTRA.REPUL>
0

>  <SCORE.INTRA.REPUL.0>
0

>  <SCORE.INTRA.VDW>
-284.46

>  <SCORE.INTRA.VDW.0>
279.703

>  <SCORE.INTRA.norm>
-10.4753

>  <SCORE.RESTR>
0

>  <SCORE.RESTR.CAVITY>
0

>  <SCORE.RESTR.norm>
0

>  <SCORE.SYSTEM>
-6.24916

>  <SCORE.SYSTEM.CONST>
0

>  <SCORE.SYSTEM.DIHEDRAL>
5.2558

>  <SCORE.SYSTEM.POLAR>
-3.26337

>  <SCORE.SYSTEM.VDW>
2.21839

>  <SCORE.SYSTEM.norm>
-0.23145

>  <SCORE.heavy>
27

>  <SCORE.norm>
-11.0782

$$$$
F5854-0433
  rDOCK(R)          3D
libRbt.so/2013.1/901 2013/11/27
 27 29  0  0  0  0  0  0  0  0999 V2000
  -13.6893   17.7496  -17.2199 F   0  0  0  0  0  0
  -14.9699   17.9571  -16.8852 C   0  0  0  0  0  0
  -15.5015   19.5733  -16.6795 C   0  0  0  0  0  0
  -17.3055   20.0459  -16.0305 C   0  0  0  0  0  0
  -18.4173   18.6782  -15.6559 C   0  0  0  0  0  0
  -19.6215   19.2924  -15.0924 C   0  0  0  0  0  0
  -19.4813   19.3280  -13.3069 S   0  0  0  0  0  0
  -19.8697   18.0133  -12.8330 O   0  0  0  0  0  0
  -18.2208   19.8936  -12.8709 O   0  0  0  0  0  0
  -20.6908   20.4187  -12.9306 N   0  0  0  0  0  0
  -20.4190   21.9154  -12.9978 C   0  0  0  0  0  0
  -20.7852   22.8530  -11.7735 C   0  0  0  0  0  0
  -22.3584   23.3796  -11.3444 C   0  0  0  0  0  0
  -23.2429   23.5417   -9.5576 C   0  0  0  0  0  0
  -24.9348   23.4365   -9.2311 C   0  0  0  0  0  0
  -25.9334   23.2519  -10.5877 C   0  0  0  0  0  0
  -25.3403   23.1166  -12.2719 C   0  0  0  0  0  0
  -23.5698   23.1695  -12.7244 C   0  0  0  0  0  0
  -22.0549   19.8316  -12.7239 C   0  0  0  0  0  0
  -22.7330   19.9544  -11.3493 C   0  0  0  0  0  0
  -24.0735   19.7664  -11.3309 N   0  0  0  0  0  0
  -24.7173   19.8449  -10.1405 C   0  0  0  0  0  0
  -24.0910   20.0220   -8.9207 C   0  0  0  0  0  0
  -22.7219   20.2189   -8.9294 C   0  0  0  0  0  0
  -22.0484   20.2608  -10.1592 C   0  0  0  0  0  0
  -17.7460   16.9965  -15.8212 C   0  0  0  0  0  0
  -16.0688   16.6980  -16.4236 C   0  0  0  0  0  0
  1  2  1  0  0  0
  2  3  2  0  0  0
  2 27  1  0  0  0
  3  4  1  0  0  0
  4  5  2  0  0  0
  5  6  1  0  0  0
  5 26  1  0  0  0
  6  7  1  0  0  0
  7  8  2  0  0  0
  7  9  2  0  0  0
  7 10  1  0  0  0
 10 11  1  0  0  0
 10 19  1  0  0  0
 11 12  1  0  0  0
 12 13  1  0  0  0
 13 14  2  0  0  0
 13 18  1  0  0  0
 14 15  1  0  0  0
 15 16  2  0  0  0
 16 17  1  0  0  0
 17 18  2  0  0  0
 19 20  1  0  0  0
 20 21  2  0  0  0
 20 25  1  0  0  0
 21 22  1  0  0  0
 22 23  2  0  0  0
 23 24  1  0  0  0
 24 25  2  0  0  0
 26 27  2  0  0  0
M  END
>  <CHROM.0>
-58.06044755,-69.53426479,-8.92421871,66.59946790,168.37695060,-56.91311105
-156.63775424,-155.94308616

>  <CHROM.1>
-93.51221893,-81.85850243,-83.16186283,-129.34688173,117.21160448,-75.89088706
138.13320522,161.38713545,-20.58292260,20.23805352,-12.89076885,-0.21367136
0.68542616,-0.24988056

>  <Name>
F5854-0433

>  <RI>
3.16808e+07

>  <Rbt.Current_Directory>
/home/adria/Escritorio/rDock_CMTR_LC/2pxcA_model/inputs_sah

>  <Rbt.Executable>
rbdock ($Id: //depot/dev/client3/rdock/2013.1/src/exe/rbdock.cxx#4 $)

>  <Rbt.Library>
libRbt.so (2013.1, Build901 2013/11/27)

>  <Rbt.Parameter_File>
/home/adria/Escritorio/rDock_2013.1_src/data/scripts/dock.prm

>  <Rbt.Receptor>
sah_rdock.prm

>  <SCORE>
-297.593

>  <SCORE.INTER>
-10.1648

>  <SCORE.INTER.CONST>
1

>  <SCORE.INTER.POLAR>
-0.824621

>  <SCORE.INTER.REPUL>
0

>  <SCORE.INTER.ROT>
8

>  <SCORE.INTER.VDW>
-20.7611

>  <SCORE.INTER.norm>
-0.376475

>  <SCORE.INTRA>
-284.95

>  <SCORE.INTRA.DIHEDRAL>
-0.0318543

>  <SCORE.INTRA.DIHEDRAL.0>
9.14453

>  <SCORE.INTRA.POLAR>
0

>  <SCORE.INTRA.POLAR.0>
0

>  <SCORE.INTRA.REPUL>
0

>  <SCORE.INTRA.REPUL.0>
0

>  <SCORE.INTRA.VDW>
-284.934

>  <SCORE.INTRA.VDW.0>
279.703

>  <SCORE.INTRA.norm>
-10.5537

>  <SCORE.RESTR>
0

>  <SCORE.RESTR.CAVITY>
0

>  <SCORE.RESTR.norm>
0

>  <SCORE.SYSTEM>
-2.4791

>  <SCORE.SYSTEM.CONST>
0

>  <SCORE.SYSTEM.DIHEDRAL>
6.73265

>  <SCORE.SYSTEM.POLAR>
-4.53795

>  <SCORE.SYSTEM.REPUL>
0.0317684

>  <SCORE.SYSTEM.VDW>
9.42476

>  <SCORE.SYSTEM.norm>
-0.0918184

>  <SCORE.heavy>
27

>  <SCORE.norm>
-11.022

$$$$
F5854-0433
  rDOCK(R)          3D
libRbt.so/2013.1/901 2013/11/27
 27 29  0  0  0  0  0  0  0  0999 V2000
  -14.0470   16.5510  -17.6058 F   0  0  0  0  0  0
  -14.9475   17.3108  -16.9679 C   0  0  0  0  0  0
  -16.3704   16.5584  -16.3796 C   0  0  0  0  0  0
  -17.8664   17.5575  -15.5653 C   0  0  0  0  0  0
  -17.6796   19.3458  -15.4481 C   0  0  0  0  0  0
  -18.9549   19.8418  -14.9261 C   0  0  0  0  0  0
  -19.0604   19.4635  -13.1783 S   0  0  0  0  0  0
  -19.2732   18.0326  -13.0746 O   0  0  0  0  0  0
  -17.9864   20.0759  -12.4230 O   0  0  0  0  0  0
  -20.4801   20.2525  -12.7837 N   0  0  0  0  0  0
  -20.4476   21.4833  -11.8878 C   0  0  0  0  0  0
  -21.7871   22.2528  -11.5327 C   0  0  0  0  0  0
  -23.0820   21.6385  -10.5934 C   0  0  0  0  0  0
  -23.0824   20.6158   -8.8744 C   0  0  0  0  0  0
  -24.2853   19.4993   -8.3389 C   0  0  0  0  0  0
  -25.6296   19.3258   -9.3562 C   0  0  0  0  0  0
  -25.8326   20.1728  -10.9207 C   0  0  0  0  0  0
  -24.6012   21.3394  -11.6027 C   0  0  0  0  0  0
  -21.7064   19.7876  -13.5105 C   0  0  0  0  0  0
  -22.5412   18.6346  -12.9290 C   0  0  0  0  0  0
  -22.8979   17.6627  -13.8013 N   0  0  0  0  0  0
  -23.6186   16.6134  -13.3350 C   0  0  0  0  0  0
  -23.9491   16.4178  -12.0069 C   0  0  0  0  0  0
  -23.5924   17.4072  -11.1085 C   0  0  0  0  0  0
  -22.9502   18.5596  -11.5852 C   0  0  0  0  0  0
  -16.1773   20.0704  -16.1719 C   0  0  0  0  0  0
  -14.8799   19.0417  -16.8955 C   0  0  0  0  0  0
  1  2  1  0  0  0
  2  3  2  0  0  0
  2 27  1  0  0  0
  3  4  1  0  0  0
  4  5  2  0  0  0
  5  6  1  0  0  0
  5 26  1  0  0  0
  6  7  1  0  0  0
  7  8  2  0  0  0
  7  9  2  0  0  0
  7 10  1  0  0  0
 10 11  1  0  0  0
 10 19  1  0  0  0
 11 12  1  0  0  0
 12 13  1  0  0  0
 13 14  2  0  0  0
 13 18  1  0  0  0
 14 15  1  0  0  0
 15 16  2  0  0  0
 16 17  1  0  0  0
 17 18  2  0  0  0
 19 20  1  0  0  0
 20 21  2  0  0  0
 20 25  1  0  0  0
 21 22  1  0  0  0
 22 23  2  0  0  0
 23 24  1  0  0  0
 24 25  2  0  0  0
 26 27  2  0  0  0
M  END
>  <CHROM.0>
-59.44890786,-71.71896602,-6.79501084,65.14742996,-30.68240919,66.07746497
83.57877577,-159.06098426

>  <CHROM.1>
74.69122358,-72.33121391,-111.47695857,178.80187535,88.72398368,66.29150772
44.02578416,-133.11648381,-20.46076472,19.08744394,-13.12841284,0.41164399
-0.48355805,-2.66644005

>  <Name>
F5854-0433

>  <RI>
3.16808e+07

>  <Rbt.Current_Directory>
/home/adria/Escritorio/rDock_CMTR_LC/2pxcA_model/inputs_sah

>  <Rbt.Executable>
rbdock ($Id: //depot/dev/client3/rdock/2013.1/src/exe/rbdock.cxx#4 $)

>  <Rbt.Library>
libRbt.so (2013.1, Build901 2013/11/27)

>  <Rbt.Parameter_File>
/home/adria/Escritorio/rDock_2013.1_src/data/scripts/dock.prm

>  <Rbt.Receptor>
sah_rdock.prm

>  <SCORE>
-301.81

>  <SCORE.INTER>
-10.5172

>  <SCORE.INTER.CONST>
1

>  <SCORE.INTER.POLAR>
-0.796086

>  <SCORE.INTER.REPUL>
0

>  <SCORE.INTER.ROT>
8

>  <SCORE.INTER.VDW>
-21.2105

>  <SCORE.INTER.norm>
-0.389526

>  <SCORE.INTRA>
-284.123

>  <SCORE.INTRA.DIHEDRAL>
-1.34384

>  <SCORE.INTRA.DIHEDRAL.0>
9.14453

>  <SCORE.INTRA.POLAR>
0

>  <SCORE.INTRA.POLAR.0>
0

>  <SCORE.INTRA.REPUL>
0

>  <SCORE.INTRA.REPUL.0>
0

>  <SCORE.INTRA.VDW>
-283.451

>  <SCORE.INTRA.VDW.0>
279.703

>  <SCORE.INTRA.norm>
-10.5231

>  <SCORE.RESTR>
0

>  <SCORE.RESTR.CAVITY>
0

>  <SCORE.RESTR.norm>
0

>  <SCORE.SYSTEM>
-7.16951

>  <SCORE.SYSTEM.CONST>
0

>  <SCORE.SYSTEM.DIHEDRAL>
9.65687

>  <SCORE.SYSTEM.POLAR>
-4.59162

>  <SCORE.SYSTEM.REPUL>
0.0361681

>  <SCORE.SYSTEM.VDW>
3.43273

>  <SCORE.SYSTEM.norm>
-0.265538

>  <SCORE.heavy>
27

>  <SCORE.norm>
-11.1781

$$$$
F5854-0433
  rDOCK(R)          3D
libRbt.so/2013.1/901 2013/11/27
 27 29  0  0  0  0  0  0  0  0999 V2000
  -13.7460   18.6411  -19.0118 F   0  0  0  0  0  0
  -14.6547   18.5304  -18.0335 C   0  0  0  0  0  0
  -15.6181   17.1142  -17.9794 C   0  0  0  0  0  0
  -17.1081   16.8657  -16.7077 C   0  0  0  0  0  0
  -17.4297   18.2173  -15.5602 C   0  0  0  0  0  0
  -18.6361   17.8313  -14.8250 C   0  0  0  0  0  0
  -19.3944   19.2981  -14.1305 S   0  0  0  0  0  0
  -18.4956   19.7831  -13.1007 O   0  0  0  0  0  0
  -19.8534   20.2116  -15.1570 O   0  0  0  0  0  0
  -20.7406   18.6262  -13.4023 N   0  0  0  0  0  0
  -21.1610   19.0753  -12.0094 C   0  0  0  0  0  0
  -20.9276   20.5726  -11.5447 C   0  0  0  0  0  0
  -21.5625   21.9722  -12.3026 C   0  0  0  0  0  0
  -20.9766   23.8831  -12.2246 C   0  0  0  0  0  0
  -21.9723   25.2767  -12.4406 C   0  0  0  0  0  0
  -23.5919   24.9674  -12.8318 C   0  0  0  0  0  0
  -24.3045   23.3311  -12.9780 C   0  0  0  0  0  0
  -23.3526   21.7908  -12.7251 C   0  0  0  0  0  0
  -21.5728   17.7323  -14.2722 C   0  0  0  0  0  0
  -22.3082   18.3255  -15.4854 C   0  0  0  0  0  0
  -23.5293   18.8548  -15.2374 N   0  0  0  0  0  0
  -24.2116   19.4081  -16.2698 C   0  0  0  0  0  0
  -23.7150   19.5482  -17.5524 C   0  0  0  0  0  0
  -22.4697   19.0071  -17.8167 C   0  0  0  0  0  0
  -21.7938   18.3243  -16.7946 C   0  0  0  0  0  0
  -16.4161   19.7159  -15.7413 C   0  0  0  0  0  0
  -15.0805   19.8187  -16.9541 C   0  0  0  0  0  0
  1  2  1  0  0  0
  2  3  2  0  0  0
  2 27  1  0  0  0
  3  4  1  0  0  0
  4  5  2  0  0  0
  5  6  1  0  0  0
  5 26  1  0  0  0
  6  7  1  0  0  0
  7  8  2  0  0  0
  7  9  2  0  0  0
  7 10  1  0  0  0
 10 11  1  0  0  0
 10 19  1  0  0  0
 11 12  1  0  0  0
 12 13  1  0  0  0
 13 14  2  0  0  0
 13 18  1  0  0  0
 14 15  1  0  0  0
 15 16  2  0  0  0
 16 17  1  0  0  0
 17 18  2  0  0  0
 19 20  1  0  0  0
 20 21  2  0  0  0
 20 25  1  0  0  0
 21 22  1  0  0  0
 22 23  2  0  0  0
 23 24  1  0  0  0
 24 25  2  0  0  0
 26 27  2  0  0  0
M  END
>  <CHROM.0>
-62.28059411,-168.66104408,-8.19979664,66.12454055,-31.45713013,-176.90515140
-38.73786818,-161.80947834

>  <CHROM.1>
-158.81508810,-68.20345420,137.03148821,33.07793021,-65.29266913,59.08392132
-159.35463998,-85.99838914,-20.04408884,19.82181193,-14.91471775,-0.66737828
0.06885166,0.73307120

>  <Name>
F5854-0433

>  <RI>
3.16808e+07

>  <Rbt.Current_Directory>
/home/adria/Escritorio/rDock_CMTR_LC/2pxcA_model/inputs_sah

>  <Rbt.Executable>
rbdock ($Id: //depot/dev/client3/rdock/2013.1/src/exe/rbdock.cxx#4 $)

>  <Rbt.Library>
libRbt.so (2013.1, Build901 2013/11/27)

>  <Rbt.Parameter_File>
/home/adria/Escritorio/rDock_2013.1_src/data/scripts/dock.prm

>  <Rbt.Receptor>
sah_rdock.prm

>  <SCORE>
-302.424

>  <SCORE.INTER>
-12.8263

>  <SCORE.INTER.CONST>
1

>  <SCORE.INTER.POLAR>
0

>  <SCORE.INTER.REPUL>
0

>  <SCORE.INTER.ROT>
8

>  <SCORE.INTER.VDW>
-26.2263

>  <SCORE.INTER.norm>
-0.475049

>  <SCORE.INTRA>
-283.445

>  <SCORE.INTRA.DIHEDRAL>
-1.07155

>  <SCORE.INTRA.DIHEDRAL.0>
9.14453

>  <SCORE.INTRA.POLAR>
0

>  <SCORE.INTRA.POLAR.0>
0

>  <SCORE.INTRA.REPUL>
0

>  <SCORE.INTRA.REPUL.0>
0

>  <SCORE.INTRA.VDW>
-282.909

>  <SCORE.INTRA.VDW.0>
279.703

>  <SCORE.INTRA.norm>
-10.498

>  <SCORE.RESTR>
0

>  <SCORE.RESTR.CAVITY>
0

>  <SCORE.RESTR.norm>
0

>  <SCORE.SYSTEM>
-6.15225

>  <SCORE.SYSTEM.CONST>
0

>  <SCORE.SYSTEM.DIHEDRAL>
9.084

>  <SCORE.SYSTEM.POLAR>
-4.24964

>  <SCORE.SYSTEM.VDW>
3.75454

>  <SCORE.SYSTEM.norm>
-0.227861

>  <SCORE.heavy>
27

>  <SCORE.norm>
-11.2009

$$$$
F5854-0433
  rDOCK(R)          3D
libRbt.so/2013.1/901 2013/11/27
 27 29  0  0  0  0  0  0  0  0999 V2000
  -14.3622   17.2420  -19.3342 F   0  0  0  0  0  0
  -15.2636   17.6221  -18.4188 C   0  0  0  0  0  0
  -14.9131   18.9986  -17.4600 C   0  0  0  0  0  0
  -16.0532   19.5936  -15.9616 C   0  0  0  0  0  0
  -17.5293   18.6157  -15.6268 C   0  0  0  0  0  0
  -18.1180   19.1928  -14.4164 C   0  0  0  0  0  0
  -19.6645   18.3610  -14.0622 S   0  0  0  0  0  0
  -20.5973   18.7579  -15.0996 O   0  0  0  0  0  0
  -19.4735   16.9523  -13.7833 O   0  0  0  0  0  0
  -20.0918   19.1140  -12.6324 N   0  0  0  0  0  0
  -19.7115   20.5684  -12.3905 C   0  0  0  0  0  0
  -20.6867   21.7369  -12.8330 C   0  0  0  0  0  0
  -20.6430   23.3534  -12.2660 C   0  0  0  0  0  0
  -19.6403   24.1810  -10.7458 C   0  0  0  0  0  0
  -20.1063   25.5750   -9.8404 C   0  0  0  0  0  0
  -21.5225   26.3472  -10.3599 C   0  0  0  0  0  0
  -22.5455   25.7825  -11.7168 C   0  0  0  0  0  0
  -22.1698   24.2950  -12.7112 C   0  0  0  0  0  0
  -21.0077   18.3358  -11.7358 C   0  0  0  0  0  0
  -22.1901   19.0475  -11.0576 C   0  0  0  0  0  0
  -23.4184   18.7486  -11.5420 N   0  0  0  0  0  0
  -24.4965   19.3348  -10.9660 C   0  0  0  0  0  0
  -24.4419   20.1588   -9.8572 C   0  0  0  0  0  0
  -23.1911   20.4733   -9.3573 C   0  0  0  0  0  0
  -22.0531   19.9746  -10.0086 C   0  0  0  0  0  0
  -17.7810   17.1246  -16.6365 C   0  0  0  0  0  0
  -16.6557   16.6861  -17.9805 C   0  0  0  0  0  0
  1  2  1  0  0  0
  2  3  2  0  0  0
  2 27  1  0  0  0
  3  4  1  0  0  0
  4  5  2  0  0  0
  5  6  1  0  0  0
  5 26  1  0  0  0
  6  7  1  0  0  0
  7  8  2  0  0  0
  7  9  2  0  0  0
  7 10  1  0  0  0
 10 11  1  0  0  0
 10 19  1  0  0  0
 11 12  1  0  0  0
 12 13  1  0  0  0
 13 14  2  0  0  0
 13 18  1  0  0  0
 14 15  1  0  0  0
 15 16  2  0  0  0
 16 17  1  0  0  0
 17 18  2  0  0  0
 19 20  1  0  0  0
 20 21  2  0  0  0
 20 25  1  0  0  0
 21 22  1  0  0  0
 22 23  2  0  0  0
 23 24  1  0  0  0
 24 25  2  0  0  0
 26 27  2  0  0  0
M  END
>  <CHROM.0>
-60.45354190,66.78762004,-129.91061879,64.17100057,168.20263111,-53.96675606
-159.24074782,-159.28724203

>  <CHROM.1>
175.98268332,-69.39004074,32.34668444,89.71420787,-136.48110488,161.70090344
-11.29284912,107.79215960,-19.85885552,20.04936847,-13.41718496,-0.68943688
0.69858711,0.27177015

>  <Name>
F5854-0433

>  <RI>
3.16808e+07

>  <Rbt.Current_Directory>
/home/adria/Escritorio/rDock_CMTR_LC/2pxcA_model/inputs_sah

>  <Rbt.Executable>
rbdock ($Id: //depot/dev/client3/rdock/2013.1/src/exe/rbdock.cxx#4 $)

>  <Rbt.Library>
libRbt.so (2013.1, Build901 2013/11/27)

>  <Rbt.Parameter_File>
/home/adria/Escritorio/rDock_2013.1_src/data/scripts/dock.prm

>  <Rbt.Receptor>
sah_rdock.prm

>  <SCORE>
-301.419

>  <SCORE.INTER>
-18.2277

>  <SCORE.INTER.CONST>
1

>  <SCORE.INTER.POLAR>
-0.824621

>  <SCORE.INTER.REPUL>
0

>  <SCORE.INTER.ROT>
8

>  <SCORE.INTER.VDW>
-28.824

>  <SCORE.INTER.norm>
-0.6751

>  <SCORE.INTRA>
-281.334

>  <SCORE.INTRA.DIHEDRAL>
0.173885

>  <SCORE.INTRA.DIHEDRAL.0>
9.14453

>  <SCORE.INTRA.POLAR>
0

>  <SCORE.INTRA.POLAR.0>
0

>  <SCORE.INTRA.REPUL>
0

>  <SCORE.INTRA.REPUL.0>
0

>  <SCORE.INTRA.VDW>
-281.421

>  <SCORE.INTRA.VDW.0>
279.703

>  <SCORE.INTRA.norm>
-10.4198

>  <SCORE.RESTR>
0

>  <SCORE.RESTR.CAVITY>
0

>  <SCORE.RESTR.norm>
0

>  <SCORE.SYSTEM>
-1.85671

>  <SCORE.SYSTEM.CONST>
0

>  <SCORE.SYSTEM.DIHEDRAL>
5.99258

>  <SCORE.SYSTEM.POLAR>
-4.11096

>  <SCORE.SYSTEM.VDW>
9.12426

>  <SCORE.SYSTEM.norm>
-0.0687671

>  <SCORE.heavy>
27

>  <SCORE.norm>
-11.1636

$$$$
F5854-0433
  rDOCK(R)          3D
libRbt.so/2013.1/901 2013/11/27
 27 29  0  0  0  0  0  0  0  0999 V2000
  -24.9744   18.1472   -9.8957 F   0  0  0  0  0  0
  -24.0009   18.1251  -10.8159 C   0  0  0  0  0  0
  -24.0734   16.9311  -12.0431 C   0  0  0  0  0  0
  -22.6404   16.6571  -13.3737 C   0  0  0  0  0  0
  -21.2080   17.7443  -13.2594 C   0  0  0  0  0  0
  -20.2633   17.2586  -14.2675 C   0  0  0  0  0  0
  -19.4272   18.6578  -15.0105 S   0  0  0  0  0  0
  -20.3787   19.2809  -15.9105 O   0  0  0  0  0  0
  -18.7479   19.4727  -14.0239 O   0  0  0  0  0  0
  -18.2631   17.8690  -15.9142 N   0  0  0  0  0  0
  -18.6545   17.1250  -17.1838 C   0  0  0  0  0  0
  -17.9443   15.7604  -17.5653 C   0  0  0  0  0  0
  -17.7705   14.3961  -16.5431 C   0  0  0  0  0  0
  -18.4429   14.0540  -14.6906 C   0  0  0  0  0  0
  -17.7292   13.0167  -13.5095 C   0  0  0  0  0  0
  -16.3631   12.1540  -14.0208 C   0  0  0  0  0  0
  -15.6237   12.2967  -15.6455 C   0  0  0  0  0  0
  -16.2705   13.3975  -16.9541 C   0  0  0  0  0  0
  -16.8428   18.1101  -15.4983 C   0  0  0  0  0  0
  -15.7958   18.4885  -16.5591 C   0  0  0  0  0  0
  -15.5523   17.5563  -17.5101 N   0  0  0  0  0  0
  -14.6514   17.8479  -18.4801 C   0  0  0  0  0  0
  -14.0177   19.0687  -18.6202 C   0  0  0  0  0  0
  -14.2571   20.0263  -17.6512 C   0  0  0  0  0  0
  -15.0937   19.7073  -16.5714 C   0  0  0  0  0  0
  -21.1738   18.9260  -11.8779 C   0  0  0  0  0  0
  -22.5535   19.0747  -10.7205 C   0  0  0  0  0  0
  1  2  1  0  0  0
  2  3  2  0  0  0
  2 27  1  0  0  0
  3  4  1  0  0  0
  4  5  2  0  0  0
  5  6  1  0  0  0
  5 26  1  0  0  0
  6  7  1  0  0  0
  7  8  2  0  0  0
  7  9  2  0  0  0
  7 10  1  0  0  0
 10 11  1  0  0  0
 10 19  1  0  0  0
 11 12  1  0  0  0
 12 13  1  0  0  0
 13 14  2  0  0  0
 13 18  1  0  0  0
 14 15  1  0  0  0
 15 16  2  0  0  0
 16 17  1  0  0  0
 17 18  2  0  0  0
 19 20  1  0  0  0
 20 21  2  0  0  0
 20 25  1  0  0  0
 21 22  1  0  0  0
 22 23  2  0  0  0
 23 24  1  0  0  0
 24 25  2  0  0  0
 26 27  2  0  0  0
M  END
>  <CHROM.0>
-58.58625964,-167.13509007,110.89768604,64.48097716,168.46286660,-177.33109534
83.55990677,-161.79578673

>  <CHROM.1>
143.12120744,-75.11992873,73.14489785,-142.82942419,-131.27603034,51.79315309
3.50560646,-63.33791866,-18.75044380,17.21195359,-14.91873666,3.12538368
0.64228772,-0.16347276

>  <Name>
F5854-0433

>  <RI>
3.16808e+07

>  <Rbt.Current_Directory>
/home/adria/Escritorio/rDock_CMTR_LC/2pxcA_model/inputs_sah

>  <Rbt.Executable>
rbdock ($Id: //depot/dev/client3/rdock/2013.1/src/exe/rbdock.cxx#4 $)

>  <Rbt.Library>
libRbt.so (2013.1, Build901 2013/11/27)

>  <Rbt.Parameter_File>
/home/adria/Escritorio/rDock_2013.1_src/data/scripts/dock.prm

>  <Rbt.Receptor>
sah_rdock.prm

>  <SCORE>
-295.322

>  <SCORE.INTER>
-11.5246

>  <SCORE.INTER.CONST>
1

>  <SCORE.INTER.POLAR>
0

>  <SCORE.INTER.REPUL>
0

>  <SCORE.INTER.ROT>
8

>  <SCORE.INTER.VDW>
-24.9246

>  <SCORE.INTER.norm>
-0.426836

>  <SCORE.INTRA>
-282.611

>  <SCORE.INTRA.DIHEDRAL>
-0.451828

>  <SCORE.INTRA.DIHEDRAL.0>
9.14453

>  <SCORE.INTRA.POLAR>
0

>  <SCORE.INTRA.POLAR.0>
0

>  <SCORE.INTRA.REPUL>
0

>  <SCORE.INTRA.REPUL.0>
0

>  <SCORE.INTRA.VDW>
-282.385

>  <SCORE.INTRA.VDW.0>
279.703

>  <SCORE.INTRA.norm>
-10.4671

>  <SCORE.RESTR>
0

>  <SCORE.RESTR.CAVITY>
0

>  <SCORE.RESTR.norm>
0

>  <SCORE.SYSTEM>
-1.18605

>  <SCORE.SYSTEM.CONST>
0

>  <SCORE.SYSTEM.DIHEDRAL>
6.62214

>  <SCORE.SYSTEM.POLAR>
-4.20025

>  <SCORE.SYSTEM.VDW>
9.78373

>  <SCORE.SYSTEM.norm>
-0.0439276

>  <SCORE.heavy>
27

>  <SCORE.norm>
-10.9378

$$$$
F5854-0433
  rDOCK(R)          3D
libRbt.so/2013.1/901 2013/11/27
 27 29  0  0  0  0  0  0  0  0999 V2000
  -22.1424   27.0918   -9.7721 F   0  0  0  0  0  0
  -21.9302   26.0107  -10.5344 C   0  0  0  0  0  0
  -20.5106   25.0911  -10.2585 C   0  0  0  0  0  0
  -19.9667   23.5710  -11.3954 C   0  0  0  0  0  0
  -21.0509   23.1606  -12.7750 C   0  0  0  0  0  0
  -20.3669   22.0944  -13.5098 C   0  0  0  0  0  0
  -20.0538   20.7241  -12.3994 S   0  0  0  0  0  0
  -18.6400   20.7638  -12.0781 O   0  0  0  0  0  0
  -21.0225   20.6626  -11.3239 O   0  0  0  0  0  0
  -20.3408   19.4342  -13.4229 N   0  0  0  0  0  0
  -19.2693   18.9859  -14.4076 C   0  0  0  0  0  0
  -18.0438   19.9325  -14.7455 C   0  0  0  0  0  0
  -16.5943   19.4615  -15.5288 C   0  0  0  0  0  0
  -15.1961   20.5480  -16.4590 C   0  0  0  0  0  0
  -14.1638   20.0223  -17.7391 C   0  0  0  0  0  0
  -14.3181   18.3944  -18.1840 C   0  0  0  0  0  0
  -15.4869   17.2507  -17.4544 C   0  0  0  0  0  0
  -16.6555   17.7137  -16.1268 C   0  0  0  0  0  0
  -21.6039   18.6682  -13.1658 C   0  0  0  0  0  0
  -22.9406   19.2081  -13.7010 C   0  0  0  0  0  0
  -23.4495   20.2806  -13.0502 N   0  0  0  0  0  0
  -24.6169   20.8073  -13.4945 C   0  0  0  0  0  0
  -25.2910   20.3793  -14.6232 C   0  0  0  0  0  0
  -24.7809   19.2817  -15.2927 C   0  0  0  0  0  0
  -23.6391   18.6448  -14.7842 C   0  0  0  0  0  0
  -22.4900   24.2384  -13.0459 C   0  0  0  0  0  0
  -22.8758   25.6066  -11.9304 C   0  0  0  0  0  0
  1  2  1  0  0  0
  2  3  2  0  0  0
  2 27  1  0  0  0
  3  4  1  0  0  0
  4  5  2  0  0  0
  5  6  1  0  0  0
  5 26  1  0  0  0
  6  7  1  0  0  0
  7  8  2  0  0  0
  7  9  2  0  0  0
  7 10  1  0  0  0
 10 11  1  0  0  0
 10 19  1  0  0  0
 11 12  1  0  0  0
 12 13  1  0  0  0
 13 14  2  0  0  0
 13 18  1  0  0  0
 14 15  1  0  0  0
 15 16  2  0  0  0
 16 17  1  0  0  0
 17 18  2  0  0  0
 19 20  1  0  0  0
 20 21  2  0  0  0
 20 25  1  0  0  0
 21 22  1  0  0  0
 22 23  2  0  0  0
 23 24  1  0  0  0
 24 25  2  0  0  0
 26 27  2  0  0  0
M  END
>  <CHROM.0>
-62.90722385,-74.96740742,72.45210621,61.35885035,168.91193348,173.72942785
81.90262293,-167.00691579

>  <CHROM.1>
57.14894746,-104.73721777,80.28931901,-15.85563280,81.00712265,165.07087840
161.31472072,-73.55869491,-20.28658004,21.08417821,-13.59385954,-2.32704712
-0.20655564,-2.57091078

>  <Name>
F5854-0433

>  <RI>
3.16808e+07

>  <Rbt.Current_Directory>
/home/adria/Escritorio/rDock_CMTR_LC/2pxcA_model/inputs_sah

>  <Rbt.Executable>
rbdock ($Id: //depot/dev/client3/rdock/2013.1/src/exe/rbdock.cxx#4 $)

>  <Rbt.Library>
libRbt.so (2013.1, Build901 2013/11/27)

>  <Rbt.Parameter_File>
/home/adria/Escritorio/rDock_2013.1_src/data/scripts/dock.prm

>  <Rbt.Receptor>
sah_rdock.prm

>  <SCORE>
-296.674

>  <SCORE.INTER>
-13.2428

>  <SCORE.INTER.CONST>
1

>  <SCORE.INTER.POLAR>
0

>  <SCORE.INTER.REPUL>
0

>  <SCORE.INTER.ROT>
8

>  <SCORE.INTER.VDW>
-26.6428

>  <SCORE.INTER.norm>
-0.490474

>  <SCORE.INTRA>
-280.672

>  <SCORE.INTRA.DIHEDRAL>
2.39945

>  <SCORE.INTRA.DIHEDRAL.0>
9.14453

>  <SCORE.INTRA.POLAR>
0

>  <SCORE.INTRA.POLAR.0>
0

>  <SCORE.INTRA.REPUL>
0

>  <SCORE.INTRA.REPUL.0>
0

>  <SCORE.INTRA.VDW>
-281.871

>  <SCORE.INTRA.VDW.0>
279.703

>  <SCORE.INTRA.norm>
-10.3952

>  <SCORE.RESTR>
0

>  <SCORE.RESTR.CAVITY>
0

>  <SCORE.RESTR.norm>
0

>  <SCORE.SYSTEM>
-2.75922

>  <SCORE.SYSTEM.CONST>
0

>  <SCORE.SYSTEM.DIHEDRAL>
3.4579

>  <SCORE.SYSTEM.POLAR>
-3.94082

>  <SCORE.SYSTEM.REPUL>
0.041858

>  <SCORE.SYSTEM.VDW>
8.70132

>  <SCORE.SYSTEM.norm>
-0.102193

>  <SCORE.heavy>
27

>  <SCORE.norm>
-10.9879

$$$$
F5854-0433
  rDOCK(R)          3D
libRbt.so/2013.1/901 2013/11/27
 27 29  0  0  0  0  0  0  0  0999 V2000
  -22.2393   27.2213   -9.3397 F   0  0  0  0  0  0
  -21.7299   26.2707  -10.1346 C   0  0  0  0  0  0
  -22.6928   25.6975  -11.4311 C   0  0  0  0  0  0
  -22.1608   24.1914  -12.5920 C   0  0  0  0  0  0
  -20.5726   23.4165  -12.2394 C   0  0  0  0  0  0
  -20.4795   22.2756  -13.1529 C   0  0  0  0  0  0
  -20.0670   20.8058  -12.2156 S   0  0  0  0  0  0
  -18.6650   20.9183  -11.8614 O   0  0  0  0  0  0
  -21.0395   20.5314  -11.1774 O   0  0  0  0  0  0
  -20.2350   19.6365  -13.3981 N   0  0  0  0  0  0
  -19.0018   19.0088  -14.0338 C   0  0  0  0  0  0
  -18.3124   19.6881  -15.2890 C   0  0  0  0  0  0
  -16.7917   19.2632  -15.9546 C   0  0  0  0  0  0
  -15.2001   20.3873  -16.4066 C   0  0  0  0  0  0
  -14.0171   20.0593  -17.6203 C   0  0  0  0  0  0
  -14.2030   18.5925  -18.4483 C   0  0  0  0  0  0
  -15.5409   17.4349  -18.1715 C   0  0  0  0  0  0
  -16.8697   17.7047  -16.9452 C   0  0  0  0  0  0
  -21.6308   19.1396  -13.6281 C   0  0  0  0  0  0
  -22.0718   18.7471  -15.0480 C   0  0  0  0  0  0
  -21.3753   19.3120  -16.0621 N   0  0  0  0  0  0
  -21.7118   18.9841  -17.3337 C   0  0  0  0  0  0
  -22.6668   18.0444  -17.6745 C   0  0  0  0  0  0
  -23.3866   17.4645  -16.6455 C   0  0  0  0  0  0
  -23.1393   17.8746  -15.3270 C   0  0  0  0  0  0
  -19.6543   24.0308  -10.7953 C   0  0  0  0  0  0
  -20.2557   25.4189   -9.8071 C   0  0  0  0  0  0
  1  2  1  0  0  0
  2  3  2  0  0  0
  2 27  1  0  0  0
  3  4  1  0  0  0
  4  5  2  0  0  0
  5  6  1  0  0  0
  5 26  1  0  0  0
  6  7  1  0  0  0
  7  8  2  0  0  0
  7  9  2  0  0  0
  7 10  1  0  0  0
 10 11  1  0  0  0
 10 19  1  0  0  0
 11 12  1  0  0  0
 12 13  1  0  0  0
 13 14  2  0  0  0
 13 18  1  0  0  0
 14 15  1  0  0  0
 15 16  2  0  0  0
 16 17  1  0  0  0
 17 18  2  0  0  0
 19 20  1  0  0  0
 20 21  2  0  0  0
 20 25  1  0  0  0
 21 22  1  0  0  0
 22 23  2  0  0  0
 23 24  1  0  0  0
 24 25  2  0  0  0
 26 27  2  0  0  0
M  END
>  <CHROM.0>
-62.47217451,-166.02359488,-43.07794968,63.14708917,168.71684460,-177.35395597
-39.79505888,-167.78622756

>  <CHROM.1>
-128.78807850,-74.28344212,104.67870408,-87.11543562,145.59390849,169.26568752
-128.56663714,-23.33633218,-19.89017882,20.88987131,-13.97184796,-1.98237521
-0.18242341,-2.43664643

>  <Name>
F5854-0433

>  <RI>
3.16808e+07

>  <Rbt.Current_Directory>
/home/adria/Escritorio/rDock_CMTR_LC/2pxcA_model/inputs_sah

>  <Rbt.Executable>
rbdock ($Id: //depot/dev/client3/rdock/2013.1/src/exe/rbdock.cxx#4 $)

>  <Rbt.Library>
libRbt.so (2013.1, Build901 2013/11/27)

>  <Rbt.Parameter_File>
/home/adria/Escritorio/rDock_2013.1_src/data/scripts/dock.prm

>  <Rbt.Receptor>
sah_rdock.prm

>  <SCORE>
-301.309

>  <SCORE.INTER>
-17.478

>  <SCORE.INTER.CONST>
1

>  <SCORE.INTER.POLAR>
0

>  <SCORE.INTER.REPUL>
0.0028101

>  <SCORE.INTER.ROT>
8

>  <SCORE.INTER.VDW>
-30.892

>  <SCORE.INTER.norm>
-0.647332

>  <SCORE.INTRA>
-282.61

>  <SCORE.INTRA.DIHEDRAL>
-0.389096

>  <SCORE.INTRA.DIHEDRAL.0>
9.14453

>  <SCORE.INTRA.POLAR>
0

>  <SCORE.INTRA.POLAR.0>
0

>  <SCORE.INTRA.REPUL>
0

>  <SCORE.INTRA.REPUL.0>
0

>  <SCORE.INTRA.VDW>
-282.415

>  <SCORE.INTRA.VDW.0>
279.703

>  <SCORE.INTRA.norm>
-10.467

>  <SCORE.RESTR>
0

>  <SCORE.RESTR.CAVITY>
0

>  <SCORE.RESTR.norm>
0

>  <SCORE.SYSTEM>
-1.22175

>  <SCORE.SYSTEM.CONST>
0

>  <SCORE.SYSTEM.DIHEDRAL>
3.42129

>  <SCORE.SYSTEM.POLAR>
-3.49774

>  <SCORE.SYSTEM.VDW>
8.95991

>  <SCORE.SYSTEM.norm>
-0.0452499

>  <SCORE.heavy>
27

>  <SCORE.norm>
-11.1596

$$$$
F5854-0433
  rDOCK(R)          3D
libRbt.so/2013.1/901 2013/11/27
 27 29  0  0  0  0  0  0  0  0999 V2000
  -15.6812   17.2237  -18.8509 F   0  0  0  0  0  0
  -16.3689   17.5553  -17.7500 C   0  0  0  0  0  0
  -17.6029   16.4931  -17.2153 C   0  0  0  0  0  0
  -18.8148   16.9097  -15.7130 C   0  0  0  0  0  0
  -18.5695   18.4924  -14.8873 C   0  0  0  0  0  0
  -19.6544   18.5988  -13.9092 C   0  0  0  0  0  0
  -20.8558   19.7924  -14.4932 S   0  0  0  0  0  0
  -20.1367   21.0325  -14.7136 O   0  0  0  0  0  0
  -21.6843   19.2565  -15.5539 O   0  0  0  0  0  0
  -21.8087   19.9536  -13.1294 N   0  0  0  0  0  0
  -21.1700   20.2629  -11.7822 C   0  0  0  0  0  0
  -20.1748   21.4868  -11.6282 C   0  0  0  0  0  0
  -20.5657   23.1380  -11.8671 C   0  0  0  0  0  0
  -20.2422   24.7402  -10.7142 C   0  0  0  0  0  0
  -21.1832   26.1870  -10.6713 C   0  0  0  0  0  0
  -22.4611   26.2638  -11.7817 C   0  0  0  0  0  0
  -22.8964   24.9503  -12.9183 C   0  0  0  0  0  0
  -21.9969   23.3616  -13.0151 C   0  0  0  0  0  0
  -23.2890   19.9643  -13.3677 C   0  0  0  0  0  0
  -24.1394   21.1156  -12.8055 C   0  0  0  0  0  0
  -23.9824   21.3791  -11.4869 N   0  0  0  0  0  0
  -24.6950   22.3974  -10.9458 C   0  0  0  0  0  0
  -25.5155   23.2481  -11.6630 C   0  0  0  0  0  0
  -25.6854   22.9847  -13.0103 C   0  0  0  0  0  0
  -25.0521   21.8650  -13.5697 C   0  0  0  0  0  0
  -17.2949   19.5941  -15.5711 C   0  0  0  0  0  0
  -16.2515   19.0937  -16.9589 C   0  0  0  0  0  0
  1  2  1  0  0  0
  2  3  2  0  0  0
  2 27  1  0  0  0
  3  4  1  0  0  0
  4  5  2  0  0  0
  5  6  1  0  0  0
  5 26  1  0  0  0
  6  7  1  0  0  0
  7  8  2  0  0  0
  7  9  2  0  0  0
  7 10  1  0  0  0
 10 11  1  0  0  0
 10 19  1  0  0  0
 11 12  1  0  0  0
 12 13  1  0  0  0
 13 14  2  0  0  0
 13 18  1  0  0  0
 14 15  1  0  0  0
 15 16  2  0  0  0
 16 17  1  0  0  0
 17 18  2  0  0  0
 19 20  1  0  0  0
 20 21  2  0  0  0
 20 25  1  0  0  0
 21 22  1  0  0  0
 22 23  2  0  0  0
 23 24  1  0  0  0
 24 25  2  0  0  0
 26 27  2  0  0  0
M  END
>  <CHROM.0>
-63.42313325,67.06493802,-166.52976659,63.25459303,168.47714851,177.87456788
-35.87045705,-163.77420566

>  <CHROM.1>
-106.37107209,-56.42417281,51.86398906,52.06833690,-127.00788185,62.64985043
129.79950050,-51.80041305,-20.95684948,20.87804941,-13.81955479,-0.87264273
0.25235211,0.51640576

>  <Name>
F5854-0433

>  <RI>
3.16808e+07

>  <Rbt.Current_Directory>
/home/adria/Escritorio/rDock_CMTR_LC/2pxcA_model/inputs_sah

>  <Rbt.Executable>
rbdock ($Id: //depot/dev/client3/rdock/2013.1/src/exe/rbdock.cxx#4 $)

>  <Rbt.Library>
libRbt.so (2013.1, Build901 2013/11/27)

>  <Rbt.Parameter_File>
/home/adria/Escritorio/rDock_2013.1_src/data/scripts/dock.prm

>  <Rbt.Receptor>
sah_rdock.prm

>  <SCORE>
-294.486

>  <SCORE.INTER>
-7.62394

>  <SCORE.INTER.CONST>
1

>  <SCORE.INTER.POLAR>
0

>  <SCORE.INTER.REPUL>
0

>  <SCORE.INTER.ROT>
8

>  <SCORE.INTER.VDW>
-21.0239

>  <SCORE.INTER.norm>
-0.282368

>  <SCORE.INTRA>
-284.688

>  <SCORE.INTRA.DIHEDRAL>
-1.50081

>  <SCORE.INTRA.DIHEDRAL.0>
9.14453

>  <SCORE.INTRA.POLAR>
0

>  <SCORE.INTRA.POLAR.0>
0

>  <SCORE.INTRA.REPUL>
0

>  <SCORE.INTRA.REPUL.0>
0

>  <SCORE.INTRA.VDW>
-283.937

>  <SCORE.INTRA.VDW.0>
279.703

>  <SCORE.INTRA.norm>
-10.544

>  <SCORE.RESTR>
0

>  <SCORE.RESTR.CAVITY>
0

>  <SCORE.RESTR.norm>
0

>  <SCORE.SYSTEM>
-2.17421

>  <SCORE.SYSTEM.CONST>
0

>  <SCORE.SYSTEM.DIHEDRAL>
3.05968

>  <SCORE.SYSTEM.POLAR>
-3.5879

>  <SCORE.SYSTEM.VDW>
8.49482

>  <SCORE.SYSTEM.norm>
-0.0805265

>  <SCORE.heavy>
27

>  <SCORE.norm>
-10.9069

$$$$
F5854-0433
  rDOCK(R)          3D
libRbt.so/2013.1/901 2013/11/27
 27 29  0  0  0  0  0  0  0  0999 V2000
  -13.9046   18.9562  -18.6148 F   0  0  0  0  0  0
  -14.9126   18.7602  -17.7544 C   0  0  0  0  0  0
  -15.8274   17.3178  -17.8937 C   0  0  0  0  0  0
  -17.4409   16.9502  -16.8164 C   0  0  0  0  0  0
  -17.9345   18.2184  -15.6352 C   0  0  0  0  0  0
  -19.2016   17.7548  -15.0659 C   0  0  0  0  0  0
  -19.4525   18.5400  -13.4755 S   0  0  0  0  0  0
  -20.0167   17.5320  -12.5984 O   0  0  0  0  0  0
  -18.2845   19.2804  -13.0436 O   0  0  0  0  0  0
  -20.6439   19.6445  -13.8686 N   0  0  0  0  0  0
  -20.3138   20.8470  -14.7425 C   0  0  0  0  0  0
  -20.0095   22.2569  -14.0854 C   0  0  0  0  0  0
  -21.0497   23.1234  -13.0349 C   0  0  0  0  0  0
  -22.7231   24.1542  -13.4066 C   0  0  0  0  0  0
  -23.3348   25.4894  -12.4992 C   0  0  0  0  0  0
  -22.4498   25.9019  -11.1141 C   0  0  0  0  0  0
  -20.9439   25.0849  -10.5931 C   0  0  0  0  0  0
  -20.1854   23.6928  -11.5036 C   0  0  0  0  0  0
  -22.0393   19.2648  -13.4726 C   0  0  0  0  0  0
  -22.5794   19.6897  -12.0970 C   0  0  0  0  0  0
  -23.9244   19.8099  -11.9999 N   0  0  0  0  0  0
  -24.4532   20.1636  -10.8028 C   0  0  0  0  0  0
  -23.7220   20.3318   -9.6416 C   0  0  0  0  0  0
  -22.3467   20.2148   -9.7314 C   0  0  0  0  0  0
  -21.7654   19.9666  -10.9837 C   0  0  0  0  0  0
  -16.9584   19.7523  -15.6114 C   0  0  0  0  0  0
  -15.4999   19.9667  -16.6564 C   0  0  0  0  0  0
  1  2  1  0  0  0
  2  3  2  0  0  0
  2 27  1  0  0  0
  3  4  1  0  0  0
  4  5  2  0  0  0
  5  6  1  0  0  0
  5 26  1  0  0  0
  6  7  1  0  0  0
  7  8  2  0  0  0
  7  9  2  0  0  0
  7 10  1  0  0  0
 10 11  1  0  0  0
 10 19  1  0  0  0
 11 12  1  0  0  0
 12 13  1  0  0  0
 13 14  2  0  0  0
 13 18  1  0  0  0
 14 15  1  0  0  0
 15 16  2  0  0  0
 16 17  1  0  0  0
 17 18  2  0  0  0
 19 20  1  0  0  0
 20 21  2  0  0  0
 20 25  1  0  0  0
 21 22  1  0  0  0
 22 23  2  0  0  0
 23 24  1  0  0  0
 24 25  2  0  0  0
 26 27  2  0  0  0
M  END
>  <CHROM.0>
-60.36217399,67.69070118,75.63600686,63.46178584,33.79593839,-56.32649981
-156.46309446,-157.49123146

>  <CHROM.1>
157.49701880,-140.43281920,-70.45761106,-97.64259599,90.63018677,-56.87900900
-74.48246236,154.36135360,-19.95494978,20.31509161,-13.63779755,-0.45235418
0.69453629,0.02135834

>  <Name>
F5854-0433

>  <RI>
3.16808e+07

>  <Rbt.Current_Directory>
/home/adria/Escritorio/rDock_CMTR_LC/2pxcA_model/inputs_sah

>  <Rbt.Executable>
rbdock ($Id: //depot/dev/client3/rdock/2013.1/src/exe/rbdock.cxx#4 $)

>  <Rbt.Library>
libRbt.so (2013.1, Build901 2013/11/27)

>  <Rbt.Parameter_File>
/home/adria/Escritorio/rDock_2013.1_src/data/scripts/dock.prm

>  <Rbt.Receptor>
sah_rdock.prm

>  <SCORE>
-293.777

>  <SCORE.INTER>
-15.466

>  <SCORE.INTER.CONST>
1

>  <SCORE.INTER.POLAR>
-0.824621

>  <SCORE.INTER.REPUL>
0

>  <SCORE.INTER.ROT>
8

>  <SCORE.INTER.VDW>
-26.0623

>  <SCORE.INTER.norm>
-0.572815

>  <SCORE.INTRA>
-282.733

>  <SCORE.INTRA.DIHEDRAL>
1.0551

>  <SCORE.INTRA.DIHEDRAL.0>
9.14453

>  <SCORE.INTRA.POLAR>
0

>  <SCORE.INTRA.POLAR.0>
0

>  <SCORE.INTRA.REPUL>
0

>  <SCORE.INTRA.REPUL.0>
0

>  <SCORE.INTRA.VDW>
-283.261

>  <SCORE.INTRA.VDW.0>
279.703

>  <SCORE.INTRA.norm>
-10.4716

>  <SCORE.RESTR>
0

>  <SCORE.RESTR.CAVITY>
0

>  <SCORE.RESTR.norm>
0

>  <SCORE.SYSTEM>
4.42217

>  <SCORE.SYSTEM.CONST>
0

>  <SCORE.SYSTEM.DIHEDRAL>
5.74659

>  <SCORE.SYSTEM.POLAR>
-3.53293

>  <SCORE.SYSTEM.VDW>
13.5608

>  <SCORE.SYSTEM.norm>
0.163784

>  <SCORE.heavy>
27

>  <SCORE.norm>
-10.8806

$$$$
F5854-0433
  rDOCK(R)          3D
libRbt.so/2013.1/901 2013/11/27
 27 29  0  0  0  0  0  0  0  0999 V2000
  -24.2191   17.3037  -17.7470 F   0  0  0  0  0  0
  -23.5134   17.4472  -16.6172 C   0  0  0  0  0  0
  -23.9964   16.5476  -15.2409 C   0  0  0  0  0  0
  -23.1701   16.7643  -13.4606 C   0  0  0  0  0  0
  -21.8407   17.9731  -13.3246 C   0  0  0  0  0  0
  -21.4936   18.0185  -11.9026 C   0  0  0  0  0  0
  -22.5595   19.1971  -11.0757 S   0  0  0  0  0  0
  -23.9230   18.7652  -11.3168 O   0  0  0  0  0  0
  -22.1301   19.4599   -9.7173 O   0  0  0  0  0  0
  -22.2566   20.5673  -11.9839 N   0  0  0  0  0  0
  -23.3946   21.2687  -12.7129 C   0  0  0  0  0  0
  -23.7699   22.7677  -12.3604 C   0  0  0  0  0  0
  -24.3350   23.3340  -10.8450 C   0  0  0  0  0  0
  -23.7404   22.9074   -8.9834 C   0  0  0  0  0  0
  -24.7056   22.9673   -7.5533 C   0  0  0  0  0  0
  -26.2942   23.5188   -7.7633 C   0  0  0  0  0  0
  -27.0077   23.9774   -9.3403 C   0  0  0  0  0  0
  -26.0902   23.9081  -10.9202 C   0  0  0  0  0  0
  -20.8734   21.1337  -11.8652 C   0  0  0  0  0  0
  -19.9075   21.0323  -13.0574 C   0  0  0  0  0  0
  -19.0620   19.9750  -13.0467 N   0  0  0  0  0  0
  -18.2028   19.8288  -14.0850 C   0  0  0  0  0  0
  -18.1811   20.6392  -15.2049 C   0  0  0  0  0  0
  -19.0385   21.7244  -15.2234 C   0  0  0  0  0  0
  -19.8543   21.9660  -14.1081 C   0  0  0  0  0  0
  -21.4485   18.9431  -14.8117 C   0  0  0  0  0  0
  -22.2859   18.6495  -16.3857 C   0  0  0  0  0  0
  1  2  1  0  0  0
  2  3  2  0  0  0
  2 27  1  0  0  0
  3  4  1  0  0  0
  4  5  2  0  0  0
  5  6  1  0  0  0
  5 26  1  0  0  0
  6  7  1  0  0  0
  7  8  2  0  0  0
  7  9  2  0  0  0
  7 10  1  0  0  0
 10 11  1  0  0  0
 10 19  1  0  0  0
 11 12  1  0  0  0
 12 13  1  0  0  0
 13 14  2  0  0  0
 13 18  1  0  0  0
 14 15  1  0  0  0
 15 16  2  0  0  0
 16 17  1  0  0  0
 17 18  2  0  0  0
 19 20  1  0  0  0
 20 21  2  0  0  0
 20 25  1  0  0  0
 21 22  1  0  0  0
 22 23  2  0  0  0
 23 24  1  0  0  0
 24 25  2  0  0  0
 26 27  2  0  0  0
M  END
>  <CHROM.0>
-178.03108560,-72.59534622,75.41865542,-145.73151184,-30.73561695,-179.44896749
-34.80656859,-159.84958565

>  <CHROM.1>
-86.79397026,57.42178920,120.84550825,118.62043983,109.92189593,-62.52362693
42.72018166,-94.82831892,-22.52125012,20.27330116,-12.57405367,1.10065497
-0.26283728,-2.32329540

>  <Name>
F5854-0433

>  <RI>
3.16808e+07

>  <Rbt.Current_Directory>
/home/adria/Escritorio/rDock_CMTR_LC/2pxcA_model/inputs_sah

>  <Rbt.Executable>
rbdock ($Id: //depot/dev/client3/rdock/2013.1/src/exe/rbdock.cxx#4 $)

>  <Rbt.Library>
libRbt.so (2013.1, Build901 2013/11/27)

>  <Rbt.Parameter_File>
/home/adria/Escritorio/rDock_2013.1_src/data/scripts/dock.prm

>  <Rbt.Receptor>
sah_rdock.prm

>  <SCORE>
-300.419

>  <SCORE.INTER>
-11.6796

>  <SCORE.INTER.CONST>
1

>  <SCORE.INTER.POLAR>
-0.558774

>  <SCORE.INTER.REPUL>
0

>  <SCORE.INTER.ROT>
8

>  <SCORE.INTER.VDW>
-23.1798

>  <SCORE.INTER.norm>
-0.432579

>  <SCORE.INTRA>
-284.882

>  <SCORE.INTRA.DIHEDRAL>
-1.22642

>  <SCORE.INTRA.DIHEDRAL.0>
9.14453

>  <SCORE.INTRA.POLAR>
0

>  <SCORE.INTRA.POLAR.0>
0

>  <SCORE.INTRA.REPUL>
0

>  <SCORE.INTRA.REPUL.0>
0

>  <SCORE.INTRA.VDW>
-284.269

>  <SCORE.INTRA.VDW.0>
279.703

>  <SCORE.INTRA.norm>
-10.5512

>  <SCORE.RESTR>
0

>  <SCORE.RESTR.CAVITY>
0

>  <SCORE.RESTR.norm>
0

>  <SCORE.SYSTEM>
-3.85792

>  <SCORE.SYSTEM.CONST>
0

>  <SCORE.SYSTEM.DIHEDRAL>
11.111

>  <SCORE.SYSTEM.POLAR>
-4.06345

>  <SCORE.SYSTEM.REPUL>
0.0378049

>  <SCORE.SYSTEM.VDW>
4.21328

>  <SCORE.SYSTEM.norm>
-0.142886

>  <SCORE.heavy>
27

>  <SCORE.norm>
-11.1266

$$$$
F5854-0433
  rDOCK(R)          3D
libRbt.so/2013.1/901 2013/11/27
 27 29  0  0  0  0  0  0  0  0999 V2000
  -14.2113   15.0156  -19.0188 F   0  0  0  0  0  0
  -14.6193   16.0619  -18.2882 C   0  0  0  0  0  0
  -15.6004   15.7584  -16.9162 C   0  0  0  0  0  0
  -16.4184   17.1912  -15.8313 C   0  0  0  0  0  0
  -16.0831   18.8868  -16.3406 C   0  0  0  0  0  0
  -16.8897   19.7306  -15.4561 C   0  0  0  0  0  0
  -18.6249   19.3881  -15.7403 S   0  0  0  0  0  0
  -19.2269   20.6310  -16.1836 O   0  0  0  0  0  0
  -18.8211   18.1869  -16.5260 O   0  0  0  0  0  0
  -19.1292   19.0683  -14.1791 N   0  0  0  0  0  0
  -19.1019   20.1679  -13.1261 C   0  0  0  0  0  0
  -20.1521   21.3539  -13.1771 C   0  0  0  0  0  0
  -20.7786   22.2023  -11.8265 C   0  0  0  0  0  0
  -22.4343   21.9023  -10.7450 C   0  0  0  0  0  0
  -23.3292   23.0961   -9.8765 C   0  0  0  0  0  0
  -22.6766   24.6599   -9.8959 C   0  0  0  0  0  0
  -21.1901   25.1269  -10.7783 C   0  0  0  0  0  0
  -20.1929   23.9542  -11.7647 C   0  0  0  0  0  0
  -19.7659   17.7282  -13.9627 C   0  0  0  0  0  0
  -21.0894   17.6340  -13.1854 C   0  0  0  0  0  0
  -22.0545   16.8701  -13.7491 N   0  0  0  0  0  0
  -23.2342   16.7385  -13.0943 C   0  0  0  0  0  0
  -23.4991   17.2630  -11.8429 C   0  0  0  0  0  0
  -22.5206   18.0482  -11.2604 C   0  0  0  0  0  0
  -21.3366   18.2976  -11.9701 C   0  0  0  0  0  0
  -15.1033   19.1180  -17.8547 C   0  0  0  0  0  0
  -14.4131   17.7166  -18.7630 C   0  0  0  0  0  0
  1  2  1  0  0  0
  2  3  2  0  0  0
  2 27  1  0  0  0
  3  4  1  0  0  0
  4  5  2  0  0  0
  5  6  1  0  0  0
  5 26  1  0  0  0
  6  7  1  0  0  0
  7  8  2  0  0  0
  7  9  2  0  0  0
  7 10  1  0  0  0
 10 11  1  0  0  0
 10 19  1  0  0  0
 11 12  1  0  0  0
 12 13  1  0  0  0
 13 14  2  0  0  0
 13 18  1  0  0  0
 14 15  1  0  0  0
 15 16  2  0  0  0
 16 17  1  0  0  0
 17 18  2  0  0  0
 19 20  1  0  0  0
 20 21  2  0  0  0
 20 25  1  0  0  0
 21 22  1  0  0  0
 22 23  2  0  0  0
 23 24  1  0  0  0
 24 25  2  0  0  0
 26 27  2  0  0  0
M  END
>  <CHROM.0>
-176.93779179,-71.43839222,-127.21500500,63.79115427,168.37049960,-57.50153624
82.00853546,-162.37953718

>  <CHROM.1>
-63.68869132,-119.35903885,65.26045011,72.23519032,-132.50606307,149.06184694
-93.22267981,132.76721382,-19.24583231,19.26716384,-14.30382924,0.67922821
-0.63079988,-2.84307980

>  <Name>
F5854-0433

>  <RI>
3.16808e+07

>  <Rbt.Current_Directory>
/home/adria/Escritorio/rDock_CMTR_LC/2pxcA_model/inputs_sah

>  <Rbt.Executable>
rbdock ($Id: //depot/dev/client3/rdock/2013.1/src/exe/rbdock.cxx#4 $)

>  <Rbt.Library>
libRbt.so (2013.1, Build901 2013/11/27)

>  <Rbt.Parameter_File>
/home/adria/Escritorio/rDock_2013.1_src/data/scripts/dock.prm

>  <Rbt.Receptor>
sah_rdock.prm

>  <SCORE>
-290.848

>  <SCORE.INTER>
-10.405

>  <SCORE.INTER.CONST>
1

>  <SCORE.INTER.POLAR>
0

>  <SCORE.INTER.REPUL>
0.0419898

>  <SCORE.INTER.ROT>
8

>  <SCORE.INTER.VDW>
-24.0149

>  <SCORE.INTER.norm>
-0.38537

>  <SCORE.INTRA>
-278.735

>  <SCORE.INTRA.DIHEDRAL>
5.08529

>  <SCORE.INTRA.DIHEDRAL.0>
9.14453

>  <SCORE.INTRA.POLAR>
0

>  <SCORE.INTRA.POLAR.0>
0

>  <SCORE.INTRA.REPUL>
0

>  <SCORE.INTRA.REPUL.0>
0

>  <SCORE.INTRA.VDW>
-281.277

>  <SCORE.INTRA.VDW.0>
279.703

>  <SCORE.INTRA.norm>
-10.3235

>  <SCORE.RESTR>
0

>  <SCORE.RESTR.CAVITY>
0

>  <SCORE.RESTR.norm>
0

>  <SCORE.SYSTEM>
-1.70861

>  <SCORE.SYSTEM.CONST>
0

>  <SCORE.SYSTEM.DIHEDRAL>
6.38771

>  <SCORE.SYSTEM.POLAR>
-4.34955

>  <SCORE.SYSTEM.REPUL>
0.0356284

>  <SCORE.SYSTEM.VDW>
9.70786

>  <SCORE.SYSTEM.norm>
-0.063282

>  <SCORE.heavy>
27

>  <SCORE.norm>
-10.7722

$$$$
F5854-0433
  rDOCK(R)          3D
libRbt.so/2013.1/901 2013/11/27
 27 29  0  0  0  0  0  0  0  0999 V2000
  -14.2719   17.3662  -19.2985 F   0  0  0  0  0  0
  -15.2017   17.7143  -18.3989 C   0  0  0  0  0  0
  -14.9006   19.0816  -17.4106 C   0  0  0  0  0  0
  -16.0869   19.6306  -15.9307 C   0  0  0  0  0  0
  -17.5513   18.6197  -15.6465 C   0  0  0  0  0  0
  -18.1794   19.1661  -14.4416 C   0  0  0  0  0  0
  -19.6507   18.2162  -14.0648 S   0  0  0  0  0  0
  -20.5910   18.4611  -15.1416 O   0  0  0  0  0  0
  -19.3374   16.8507  -13.6957 O   0  0  0  0  0  0
  -20.1796   19.0103  -12.6924 N   0  0  0  0  0  0
  -20.1309   20.5306  -12.6218 C   0  0  0  0  0  0
  -21.3559   21.3461  -12.0331 C   0  0  0  0  0  0
  -22.9869   21.2207  -12.5434 C   0  0  0  0  0  0
  -23.8949   19.8696  -13.7058 C   0  0  0  0  0  0
  -25.2911   20.1263  -14.6881 C   0  0  0  0  0  0
  -25.9895   21.6667  -14.5819 C   0  0  0  0  0  0
  -25.3475   23.0035  -13.5783 C   0  0  0  0  0  0
  -23.8519   22.8541  -12.5374 C   0  0  0  0  0  0
  -20.8571   18.1534  -11.6653 C   0  0  0  0  0  0
  -22.3362   17.7754  -11.8491 C   0  0  0  0  0  0
  -22.6155   16.9684  -12.8996 N   0  0  0  0  0  0
  -23.9024   16.5898  -13.0949 C   0  0  0  0  0  0
  -24.9486   16.9013  -12.2466 C   0  0  0  0  0  0
  -24.6741   17.7286  -11.1726 C   0  0  0  0  0  0
  -23.3738   18.2307  -11.0155 C   0  0  0  0  0  0
  -17.7503   17.1406  -16.6851 C   0  0  0  0  0  0
  -16.5855   16.7453  -18.0087 C   0  0  0  0  0  0
  1  2  1  0  0  0
  2  3  2  0  0  0
  2 27  1  0  0  0
  3  4  1  0  0  0
  4  5  2  0  0  0
  5  6  1  0  0  0
  5 26  1  0  0  0
  6  7  1  0  0  0
  7  8  2  0  0  0
  7  9  2  0  0  0
  7 10  1  0  0  0
 10 11  1  0  0  0
 10 19  1  0  0  0
 11 12  1  0  0  0
 12 13  1  0  0  0
 13 14  2  0  0  0
 13 18  1  0  0  0
 14 15  1  0  0  0
 15 16  2  0  0  0
 16 17  1  0  0  0
 17 18  2  0  0  0
 19 20  1  0  0  0
 20 21  2  0  0  0
 20 25  1  0  0  0
 21 22  1  0  0  0
 22 23  2  0  0  0
 23 24  1  0  0  0
 24 25  2  0  0  0
 26 27  2  0  0  0
M  END
>  <CHROM.0>
-59.78019699,-168.38094804,-127.64786384,64.91690182,-30.49602595,62.97312288
82.83143465,-156.08517443

>  <CHROM.1>
-179.64276840,-66.31273186,41.52370648,136.36758172,-80.86162198,-53.55819287
12.65586354,66.37381542,-20.64630178,18.85105776,-14.18933470,-0.02242675
0.54956201,-0.33906718

>  <Name>
F5854-0433

>  <RI>
3.16808e+07

>  <Rbt.Current_Directory>
/home/adria/Escritorio/rDock_CMTR_LC/2pxcA_model/inputs_sah

>  <Rbt.Executable>
rbdock ($Id: //depot/dev/client3/rdock/2013.1/src/exe/rbdock.cxx#4 $)

>  <Rbt.Library>
libRbt.so (2013.1, Build901 2013/11/27)

>  <Rbt.Parameter_File>
/home/adria/Escritorio/rDock_2013.1_src/data/scripts/dock.prm

>  <Rbt.Receptor>
sah_rdock.prm

>  <SCORE>
-300.012

>  <SCORE.INTER>
-10.2841

>  <SCORE.INTER.CONST>
1

>  <SCORE.INTER.POLAR>
-0.824621

>  <SCORE.INTER.REPUL>
0

>  <SCORE.INTER.ROT>
8

>  <SCORE.INTER.VDW>
-20.8804

>  <SCORE.INTER.norm>
-0.380894

>  <SCORE.INTRA>
-283.991

>  <SCORE.INTRA.DIHEDRAL>
-1.32649

>  <SCORE.INTRA.DIHEDRAL.0>
9.14453

>  <SCORE.INTRA.POLAR>
0

>  <SCORE.INTRA.POLAR.0>
0

>  <SCORE.INTRA.REPUL>
0

>  <SCORE.INTRA.REPUL.0>
0

>  <SCORE.INTRA.VDW>
-283.328

>  <SCORE.INTRA.VDW.0>
279.703

>  <SCORE.INTRA.norm>
-10.5182

>  <SCORE.RESTR>
0

>  <SCORE.RESTR.CAVITY>
0

>  <SCORE.RESTR.norm>
0

>  <SCORE.SYSTEM>
-5.73679

>  <SCORE.SYSTEM.CONST>
0

>  <SCORE.SYSTEM.DIHEDRAL>
9.68004

>  <SCORE.SYSTEM.POLAR>
-4.19816

>  <SCORE.SYSTEM.VDW>
3.69693

>  <SCORE.SYSTEM.norm>
-0.212474

>  <SCORE.heavy>
27

>  <SCORE.norm>
-11.1116

$$$$
F5854-0433
  rDOCK(R)          3D
libRbt.so/2013.1/901 2013/11/27
 27 29  0  0  0  0  0  0  0  0999 V2000
  -26.5154   19.1590  -10.2128 F   0  0  0  0  0  0
  -25.5272   18.7281  -11.0082 C   0  0  0  0  0  0
  -24.7715   19.8618  -12.0476 C   0  0  0  0  0  0
  -23.4170   19.3613  -13.3945 C   0  0  0  0  0  0
  -22.9785   17.6165  -13.4950 C   0  0  0  0  0  0
  -22.0610   17.5057  -14.6311 C   0  0  0  0  0  0
  -20.3761   17.4747  -14.0237 S   0  0  0  0  0  0
  -20.1426   18.7533  -13.3799 O   0  0  0  0  0  0
  -20.0800   16.2541  -13.3017 O   0  0  0  0  0  0
  -19.5352   17.4336  -15.4677 N   0  0  0  0  0  0
  -19.9247   18.3664  -16.6065 C   0  0  0  0  0  0
  -18.8460   19.3233  -17.2644 C   0  0  0  0  0  0
  -17.2343   18.8993  -17.6632 C   0  0  0  0  0  0
  -16.4738   17.2119  -18.4217 C   0  0  0  0  0  0
  -14.8722   16.6091  -18.1946 C   0  0  0  0  0  0
  -13.8350   17.6033  -17.2958 C   0  0  0  0  0  0
  -14.3136   19.1630  -16.5579 C   0  0  0  0  0  0
  -15.9934   19.8710  -16.6977 C   0  0  0  0  0  0
  -18.3004   16.5830  -15.4775 C   0  0  0  0  0  0
  -18.4327   15.0557  -15.5972 C   0  0  0  0  0  0
  -18.3791   14.3634  -14.4350 N   0  0  0  0  0  0
  -18.5101   13.0151  -14.4835 C   0  0  0  0  0  0
  -18.7794   12.2943  -15.6321 C   0  0  0  0  0  0
  -18.8322   12.9922  -16.8252 C   0  0  0  0  0  0
  -18.5820   14.3724  -16.8176 C   0  0  0  0  0  0
  -23.8881   16.4708  -12.4152 C   0  0  0  0  0  0
  -25.1132   17.0583  -11.2240 C   0  0  0  0  0  0
  1  2  1  0  0  0
  2  3  2  0  0  0
  2 27  1  0  0  0
  3  4  1  0  0  0
  4  5  2  0  0  0
  5  6  1  0  0  0
  5 26  1  0  0  0
  6  7  1  0  0  0
  7  8  2  0  0  0
  7  9  2  0  0  0
  7 10  1  0  0  0
 10 11  1  0  0  0
 10 19  1  0  0  0
 11 12  1  0  0  0
 12 13  1  0  0  0
 13 14  2  0  0  0
 13 18  1  0  0  0
 14 15  1  0  0  0
 15 16  2  0  0  0
 16 17  1  0  0  0
 17 18  2  0  0  0
 19 20  1  0  0  0
 20 21  2  0  0  0
 20 25  1  0  0  0
 21 22  1  0  0  0
 22 23  2  0  0  0
 23 24  1  0  0  0
 24 25  2  0  0  0
 26 27  2  0  0  0
M  END
>  <CHROM.0>
-57.21328998,-74.50784701,112.04141002,63.99598983,-29.88986472,178.35829157
82.80696557,-164.89923240

>  <CHROM.1>
98.76138475,-63.48506103,45.55055625,125.39307742,77.80282205,42.39842749
38.69127750,-97.43479678,-19.95798669,17.14440460,-14.78528268,-3.00186705
-0.57072583,3.10587695

>  <Name>
F5854-0433

>  <RI>
3.16808e+07

>  <Rbt.Current_Directory>
/home/adria/Escritorio/rDock_CMTR_LC/2pxcA_model/inputs_sah

>  <Rbt.Executable>
rbdock ($Id: //depot/dev/client3/rdock/2013.1/src/exe/rbdock.cxx#4 $)

>  <Rbt.Library>
libRbt.so (2013.1, Build901 2013/11/27)

>  <Rbt.Parameter_File>
/home/adria/Escritorio/rDock_2013.1_src/data/scripts/dock.prm

>  <Rbt.Receptor>
sah_rdock.prm

>  <SCORE>
-301.533

>  <SCORE.INTER>
-11.1949

>  <SCORE.INTER.CONST>
1

>  <SCORE.INTER.POLAR>
-0.824621

>  <SCORE.INTER.REPUL>
0.0249458

>  <SCORE.INTER.ROT>
8

>  <SCORE.INTER.VDW>
-21.916

>  <SCORE.INTER.norm>
-0.414627

>  <SCORE.INTRA>
-283.043

>  <SCORE.INTRA.DIHEDRAL>
-1.02007

>  <SCORE.INTRA.DIHEDRAL.0>
9.14453

>  <SCORE.INTRA.POLAR>
0

>  <SCORE.INTRA.POLAR.0>
0

>  <SCORE.INTRA.REPUL>
0

>  <SCORE.INTRA.REPUL.0>
0

>  <SCORE.INTRA.VDW>
-282.533

>  <SCORE.INTRA.VDW.0>
279.703

>  <SCORE.INTRA.norm>
-10.4831

>  <SCORE.RESTR>
0

>  <SCORE.RESTR.CAVITY>
0

>  <SCORE.RESTR.norm>
0

>  <SCORE.SYSTEM>
-7.29535

>  <SCORE.SYSTEM.CONST>
0

>  <SCORE.SYSTEM.DIHEDRAL>
9.64345

>  <SCORE.SYSTEM.POLAR>
-4.62198

>  <SCORE.SYSTEM.REPUL>
0.0411163

>  <SCORE.SYSTEM.VDW>
3.39208

>  <SCORE.SYSTEM.norm>
-0.270198

>  <SCORE.heavy>
27

>  <SCORE.norm>
-11.1679

$$$$
F5854-0433
  rDOCK(R)          3D
libRbt.so/2013.1/901 2013/11/27
 27 29  0  0  0  0  0  0  0  0999 V2000
  -13.9403   14.3572  -18.8876 F   0  0  0  0  0  0
  -14.8539   15.0987  -18.2469 C   0  0  0  0  0  0
  -14.8148   16.7981  -18.4645 C   0  0  0  0  0  0
  -15.9799   18.0444  -17.4703 C   0  0  0  0  0  0
  -17.1314   17.3142  -16.2924 C   0  0  0  0  0  0
  -17.7771   18.4441  -15.6206 C   0  0  0  0  0  0
  -19.2474   17.8633  -14.7779 S   0  0  0  0  0  0
  -19.6825   16.6689  -15.4763 O   0  0  0  0  0  0
  -19.0690   17.8175  -13.3410 O   0  0  0  0  0  0
  -20.3061   19.1095  -15.1242 N   0  0  0  0  0  0
  -20.3568   20.3409  -14.2300 C   0  0  0  0  0  0
  -21.6681   20.6818  -13.4076 C   0  0  0  0  0  0
  -21.9931   22.1563  -12.5973 C   0  0  0  0  0  0
  -23.3804   23.5573  -12.9343 C   0  0  0  0  0  0
  -23.2629   25.2373  -12.5549 C   0  0  0  0  0  0
  -21.8499   25.7097  -11.7473 C   0  0  0  0  0  0
  -20.5044   24.6048  -11.3284 C   0  0  0  0  0  0
  -20.5057   22.8198  -11.7235 C   0  0  0  0  0  0
  -21.0251   19.0067  -16.4360 C   0  0  0  0  0  0
  -22.2414   18.0745  -16.5631 C   0  0  0  0  0  0
  -22.8085   17.6784  -15.3993 N   0  0  0  0  0  0
  -23.8960   16.8710  -15.4564 C   0  0  0  0  0  0
  -24.5254   16.4851  -16.6253 C   0  0  0  0  0  0
  -23.9514   16.8816  -17.8196 C   0  0  0  0  0  0
  -22.7580   17.6183  -17.7893 C   0  0  0  0  0  0
  -17.0488   15.5125  -16.0622 C   0  0  0  0  0  0
  -15.9293   14.4807  -17.0354 C   0  0  0  0  0  0
  1  2  1  0  0  0
  2  3  2  0  0  0
  2 27  1  0  0  0
  3  4  1  0  0  0
  4  5  2  0  0  0
  5  6  1  0  0  0
  5 26  1  0  0  0
  6  7  1  0  0  0
  7  8  2  0  0  0
  7  9  2  0  0  0
  7 10  1  0  0  0
 10 11  1  0  0  0
 10 19  1  0  0  0
 11 12  1  0  0  0
 12 13  1  0  0  0
 13 14  2  0  0  0
 13 18  1  0  0  0
 14 15  1  0  0  0
 15 16  2  0  0  0
 16 17  1  0  0  0
 17 18  2  0  0  0
 19 20  1  0  0  0
 20 21  2  0  0  0
 20 25  1  0  0  0
 21 22  1  0  0  0
 22 23  2  0  0  0
 23 24  1  0  0  0
 24 25  2  0  0  0
 26 27  2  0  0  0
M  END
>  <CHROM.0>
-57.24090733,-74.14681214,2.85322095,63.64430283,167.49303191,53.54301773
-36.18332727,-168.84409417

>  <CHROM.1>
164.12416831,-25.37950565,-86.67144563,-115.63661330,79.13225480,-167.93844773
114.38217879,17.26402930,-19.89607774,18.72884775,-15.31597047,-0.96399193
-0.00401361,0.58043573

>  <Name>
F5854-0433

>  <RI>
3.16808e+07

>  <Rbt.Current_Directory>
/home/adria/Escritorio/rDock_CMTR_LC/2pxcA_model/inputs_sah

>  <Rbt.Executable>
rbdock ($Id: //depot/dev/client3/rdock/2013.1/src/exe/rbdock.cxx#4 $)

>  <Rbt.Library>
libRbt.so (2013.1, Build901 2013/11/27)

>  <Rbt.Parameter_File>
/home/adria/Escritorio/rDock_2013.1_src/data/scripts/dock.prm

>  <Rbt.Receptor>
sah_rdock.prm

>  <SCORE>
-295.755

>  <SCORE.INTER>
-12.3411

>  <SCORE.INTER.CONST>
1

>  <SCORE.INTER.POLAR>
-0.824621

>  <SCORE.INTER.REPUL>
0

>  <SCORE.INTER.ROT>
8

>  <SCORE.INTER.VDW>
-22.9374

>  <SCORE.INTER.norm>
-0.457077

>  <SCORE.INTRA>
-281.508

>  <SCORE.INTRA.DIHEDRAL>
1.43607

>  <SCORE.INTRA.DIHEDRAL.0>
9.14453

>  <SCORE.INTRA.POLAR>
0

>  <SCORE.INTRA.POLAR.0>
0

>  <SCORE.INTRA.REPUL>
0

>  <SCORE.INTRA.REPUL.0>
0

>  <SCORE.INTRA.VDW>
-282.226

>  <SCORE.INTRA.VDW.0>
279.703

>  <SCORE.INTRA.norm>
-10.4262

>  <SCORE.RESTR>
0

>  <SCORE.RESTR.CAVITY>
0

>  <SCORE.RESTR.norm>
0

>  <SCORE.SYSTEM>
-1.90625

>  <SCORE.SYSTEM.CONST>
0

>  <SCORE.SYSTEM.DIHEDRAL>
6.8793

>  <SCORE.SYSTEM.POLAR>
-4.45512

>  <SCORE.SYSTEM.REPUL>
0.0405189

>  <SCORE.SYSTEM.VDW>
9.5989

>  <SCORE.SYSTEM.norm>
-0.070602

>  <SCORE.heavy>
27

>  <SCORE.norm>
-10.9539

$$$$
F5854-0433
  rDOCK(R)          3D
libRbt.so/2013.1/901 2013/11/27
 27 29  0  0  0  0  0  0  0  0999 V2000
  -14.5182   15.7354  -19.3604 F   0  0  0  0  0  0
  -15.4824   16.2338  -18.5750 C   0  0  0  0  0  0
  -15.1325   17.6357  -17.6536 C   0  0  0  0  0  0
  -16.3806   18.4001  -16.3280 C   0  0  0  0  0  0
  -17.9572   17.5538  -16.1155 C   0  0  0  0  0  0
  -18.6287   18.2433  -15.0116 C   0  0  0  0  0  0
  -20.0342   17.2685  -14.4795 S   0  0  0  0  0  0
  -20.7883   16.9395  -15.6740 O   0  0  0  0  0  0
  -19.6485   16.2076  -13.5714 O   0  0  0  0  0  0
  -20.8805   18.4125  -13.6024 N   0  0  0  0  0  0
  -20.7079   18.4997  -12.0921 C   0  0  0  0  0  0
  -21.7123   19.3598  -11.2182 C   0  0  0  0  0  0
  -22.0098   21.0389  -11.3873 C   0  0  0  0  0  0
  -23.6830   22.0318  -11.8517 C   0  0  0  0  0  0
  -23.7875   23.5710  -12.6266 C   0  0  0  0  0  0
  -22.3079   24.3318  -12.9487 C   0  0  0  0  0  0
  -20.7038   23.6242  -12.5840 C   0  0  0  0  0  0
  -20.4783   21.9844  -11.8078 C   0  0  0  0  0  0
  -21.6351   19.4248  -14.4111 C   0  0  0  0  0  0
  -22.7070   18.9530  -15.4076 C   0  0  0  0  0  0
  -22.5313   19.3384  -16.6934 N   0  0  0  0  0  0
  -23.4383   18.9327  -17.6156 C   0  0  0  0  0  0
  -24.4936   18.0785  -17.3544 C   0  0  0  0  0  0
  -24.6837   17.6822  -16.0429 C   0  0  0  0  0  0
  -23.8290   18.1837  -15.0500 C   0  0  0  0  0  0
  -18.2128   16.0276  -17.0702 C   0  0  0  0  0  0
  -16.9840   15.4293  -18.2522 C   0  0  0  0  0  0
  1  2  1  0  0  0
  2  3  2  0  0  0
  2 27  1  0  0  0
  3  4  1  0  0  0
  4  5  2  0  0  0
  5  6  1  0  0  0
  5 26  1  0  0  0
  6  7  1  0  0  0
  7  8  2  0  0  0
  7  9  2  0  0  0
  7 10  1  0  0  0
 10 11  1  0  0  0
 10 19  1  0  0  0
 11 12  1  0  0  0
 12 13  1  0  0  0
 13 14  2  0  0  0
 13 18  1  0  0  0
 14 15  1  0  0  0
 15 16  2  0  0  0
 16 17  1  0  0  0
 17 18  2  0  0  0
 19 20  1  0  0  0
 20 21  2  0  0  0
 20 25  1  0  0  0
 21 22  1  0  0  0
 22 23  2  0  0  0
 23 24  1  0  0  0
 24 25  2  0  0  0
 26 27  2  0  0  0
M  END
>  <CHROM.0>
-60.07919130,-75.72399793,-128.75525283,64.68051087,27.22555671,-57.72557217
-36.82739287,-161.57014181

>  <CHROM.1>
-167.66466395,-49.89728299,-95.65375593,-167.20865657,58.36857761,-59.07569315
117.97227669,-122.76515395,-20.39274257,18.69848034,-15.00671960,-0.83752613
-0.03467087,0.79493832

>  <Name>
F5854-0433

>  <RI>
3.16808e+07

>  <Rbt.Current_Directory>
/home/adria/Escritorio/rDock_CMTR_LC/2pxcA_model/inputs_sah

>  <Rbt.Executable>
rbdock ($Id: //depot/dev/client3/rdock/2013.1/src/exe/rbdock.cxx#4 $)

>  <Rbt.Library>
libRbt.so (2013.1, Build901 2013/11/27)

>  <Rbt.Parameter_File>
/home/adria/Escritorio/rDock_2013.1_src/data/scripts/dock.prm

>  <Rbt.Receptor>
sah_rdock.prm

>  <SCORE>
-289.976

>  <SCORE.INTER>
-11.8447

>  <SCORE.INTER.CONST>
1

>  <SCORE.INTER.POLAR>
-0.824621

>  <SCORE.INTER.REPUL>
0.0307069

>  <SCORE.INTER.ROT>
8

>  <SCORE.INTER.VDW>
-22.5945

>  <SCORE.INTER.norm>
-0.438692

>  <SCORE.INTRA>
-282.825

>  <SCORE.INTRA.DIHEDRAL>
-0.253762

>  <SCORE.INTRA.DIHEDRAL.0>
9.14453

>  <SCORE.INTRA.POLAR>
0

>  <SCORE.INTRA.POLAR.0>
0

>  <SCORE.INTRA.REPUL>
0

>  <SCORE.INTRA.REPUL.0>
0

>  <SCORE.INTRA.VDW>
-282.698

>  <SCORE.INTRA.VDW.0>
279.703

>  <SCORE.INTRA.norm>
-10.475

>  <SCORE.RESTR>
0

>  <SCORE.RESTR.CAVITY>
0

>  <SCORE.RESTR.norm>
0

>  <SCORE.SYSTEM>
4.69278

>  <SCORE.SYSTEM.CONST>
0

>  <SCORE.SYSTEM.DIHEDRAL>
10.4584

>  <SCORE.SYSTEM.POLAR>
-4.36699

>  <SCORE.SYSTEM.REPUL>
0.0430329

>  <SCORE.SYSTEM.VDW>
14.0962

>  <SCORE.SYSTEM.norm>
0.173807

>  <SCORE.heavy>
27

>  <SCORE.norm>
-10.7399

$$$$
F5854-0433
  rDOCK(R)          3D
libRbt.so/2013.1/901 2013/11/27
 27 29  0  0  0  0  0  0  0  0999 V2000
  -23.0385   24.7891   -9.4689 F   0  0  0  0  0  0
  -22.5692   24.0570  -10.4881 C   0  0  0  0  0  0
  -23.1163   22.4403  -10.6432 C   0  0  0  0  0  0
  -22.4034   21.1797  -11.9854 C   0  0  0  0  0  0
  -21.1212   21.8054  -13.0861 C   0  0  0  0  0  0
  -20.6940   20.6561  -13.8868 C   0  0  0  0  0  0
  -18.9167   20.7189  -14.1019 S   0  0  0  0  0  0
  -18.6362   21.8941  -14.9043 O   0  0  0  0  0  0
  -18.2100   20.5306  -12.8513 O   0  0  0  0  0  0
  -18.6772   19.3544  -15.0371 N   0  0  0  0  0  0
  -19.0803   17.9844  -14.5086 C   0  0  0  0  0  0
  -20.2252   17.1537  -15.2236 C   0  0  0  0  0  0
  -21.8121   17.7076  -15.5572 C   0  0  0  0  0  0
  -23.5884   16.8253  -15.2979 C   0  0  0  0  0  0
  -25.0265   17.1153  -16.2078 C   0  0  0  0  0  0
  -24.9171   18.3292  -17.3853 C   0  0  0  0  0  0
  -23.4287   19.2550  -17.7512 C   0  0  0  0  0  0
  -21.8416   18.9970  -16.8812 C   0  0  0  0  0  0
  -18.2372   19.6023  -16.4489 C   0  0  0  0  0  0
  -16.7496   19.4671  -16.8144 C   0  0  0  0  0  0
  -16.4292   18.4260  -17.6182 N   0  0  0  0  0  0
  -15.1335   18.2729  -17.9858 C   0  0  0  0  0  0
  -14.1184   19.1555  -17.6665 C   0  0  0  0  0  0
  -14.4350   20.2204  -16.8424 C   0  0  0  0  0  0
  -15.7440   20.3348  -16.3512 C   0  0  0  0  0  0
  -20.5399   23.5041  -12.7984 C   0  0  0  0  0  0
  -21.2752   24.5575  -11.5277 C   0  0  0  0  0  0
  1  2  1  0  0  0
  2  3  2  0  0  0
  2 27  1  0  0  0
  3  4  1  0  0  0
  4  5  2  0  0  0
  5  6  1  0  0  0
  5 26  1  0  0  0
  6  7  1  0  0  0
  7  8  2  0  0  0
  7  9  2  0  0  0
  7 10  1  0  0  0
 10 11  1  0  0  0
 10 19  1  0  0  0
 11 12  1  0  0  0
 12 13  1  0  0  0
 13 14  2  0  0  0
 13 18  1  0  0  0
 14 15  1  0  0  0
 15 16  2  0  0  0
 16 17  1  0  0  0
 17 18  2  0  0  0
 19 20  1  0  0  0
 20 21  2  0  0  0
 20 25  1  0  0  0
 21 22  1  0  0  0
 22 23  2  0  0  0
 23 24  1  0  0  0
 24 25  2  0  0  0
 26 27  2  0  0  0
M  END
>  <CHROM.0>
-60.07713694,-73.06338311,-164.00190684,152.23803924,168.27779168,59.24760465
83.07924525,-47.62848596

>  <CHROM.1>
-140.61808355,-65.81137616,-59.89441194,115.62541222,99.50131198,-53.96318058
-134.61724320,111.40433988,-19.94484914,20.24989590,-14.67738307,-2.33473272
-0.19114499,-2.36653713

>  <Name>
F5854-0433

>  <RI>
3.16808e+07

>  <Rbt.Current_Directory>
/home/adria/Escritorio/rDock_CMTR_LC/2pxcA_model/inputs_sah

>  <Rbt.Executable>
rbdock ($Id: //depot/dev/client3/rdock/2013.1/src/exe/rbdock.cxx#4 $)

>  <Rbt.Library>
libRbt.so (2013.1, Build901 2013/11/27)

>  <Rbt.Parameter_File>
/home/adria/Escritorio/rDock_2013.1_src/data/scripts/dock.prm

>  <Rbt.Receptor>
sah_rdock.prm

>  <SCORE>
-293.2

>  <SCORE.INTER>
-12.6918

>  <SCORE.INTER.CONST>
1

>  <SCORE.INTER.POLAR>
0

>  <SCORE.INTER.REPUL>
0

>  <SCORE.INTER.ROT>
8

>  <SCORE.INTER.VDW>
-26.0918

>  <SCORE.INTER.norm>
-0.470067

>  <SCORE.INTRA>
-283.496

>  <SCORE.INTRA.DIHEDRAL>
-1.45458

>  <SCORE.INTRA.DIHEDRAL.0>
9.14453

>  <SCORE.INTRA.POLAR>
0

>  <SCORE.INTRA.POLAR.0>
0

>  <SCORE.INTRA.REPUL>
0

>  <SCORE.INTRA.REPUL.0>
0

>  <SCORE.INTRA.VDW>
-282.769

>  <SCORE.INTRA.VDW.0>
279.703

>  <SCORE.INTRA.norm>
-10.4998

>  <SCORE.RESTR>
0

>  <SCORE.RESTR.CAVITY>
0

>  <SCORE.RESTR.norm>
0

>  <SCORE.SYSTEM>
2.98748

>  <SCORE.SYSTEM.CONST>
0

>  <SCORE.SYSTEM.DIHEDRAL>
9.02256

>  <SCORE.SYSTEM.POLAR>
-3.51961

>  <SCORE.SYSTEM.REPUL>
0.0564671

>  <SCORE.SYSTEM.VDW>
10.1605

>  <SCORE.SYSTEM.norm>
0.110647

>  <SCORE.heavy>
27

>  <SCORE.norm>
-10.8593

$$$$
