F3168-1684
  rDOCK(R)          3D
libRbt.so/2013.1/901 2013/11/27
 24 26  0  0  0  0  0  0  0  0999 V2000
  -22.6150   18.6066  -12.7286 F   0  0  0  0  0  0
  -21.2777   18.7837  -12.4974 C   0  0  0  0  0  0
  -21.1372   18.7105  -11.1430 F   0  0  0  0  0  0
  -20.6674   17.6741  -12.9956 F   0  0  0  0  0  0
  -20.7349   20.0633  -13.0791 C   0  0  0  0  0  0
  -21.1121   21.3365  -12.5929 C   0  0  0  0  0  0
  -22.0120   21.4611  -11.5092 N   0  0  0  0  0  0
  -22.3303   22.5938  -10.7761 C   0  0  0  0  0  0
  -21.6831   23.7126  -10.9389 N   0  0  0  0  0  0
  -22.0158   24.8542  -10.2640 C   0  0  0  0  0  0
  -21.1857   26.3020  -10.4384 S   0  0  0  0  0  0
  -23.0778   24.8395   -9.4016 N   0  3  0  0  0  0
  -23.2933   25.7082   -8.9309 H   0  0  0  0  0  0
  -23.8170   23.6886   -9.1536 C   0  0  0  0  0  0
  -23.4765   22.5106   -9.8142 C   0  0  0  0  0  0
  -24.1811   21.3347   -9.5312 C   0  0  0  0  0  0
  -25.2337   21.3596   -8.6110 C   0  0  0  0  0  0
  -25.5793   22.5497   -7.9698 C   0  0  0  0  0  0
  -24.8685   23.7191   -8.2377 C   0  0  0  0  0  0
  -20.5866   22.4661  -13.2427 C   0  0  0  0  0  0
  -19.7083   22.3529  -14.3239 C   0  0  0  0  0  0
  -19.3403   21.1000  -14.7924 C   0  0  0  0  0  0
  -19.8539   19.9622  -14.1779 C   0  0  0  0  0  0
  -22.4975   20.6033  -11.2727 H   0  0  0  0  0  0
  1  2  1  0  0  0
  2  3  1  0  0  0
  2  4  1  0  0  0
  2  5  1  0  0  0
  5  6  2  0  0  0
  5 23  1  0  0  0
  6  7  1  0  0  0
  6 20  1  0  0  0
  7  8  1  0  0  0
  7 24  1  0  0  0
  8  9  1  0  0  0
  8 15  2  0  0  0
  9 10  1  0  0  0
 10 11  2  0  0  0
 10 12  1  0  0  0
 12 13  1  0  0  0
 12 14  2  0  0  0
 14 15  1  0  0  0
 14 19  1  0  0  0
 15 16  1  0  0  0
 16 17  2  0  0  0
 17 18  1  0  0  0
 18 19  2  0  0  0
 20 21  2  0  0  0
 21 22  1  0  0  0
 22 23  2  0  0  0
M  END
>  <CHROM.0>
-175.83634896,67.11697560,-167.15038137,67.75973920,-31.48019244,-58.71653487
-156.68128818,-159.94162789

>  <CHROM.1>
67.33898623,169.05943250,-7.53514732,-22.02899831,21.90738283,-11.27780134
0.98842743,-0.76867099,-2.88862832

>  <Name>
F3168-1684

>  <RI>
2.06872e+07

>  <Rbt.Current_Directory>
/home/adria/Escritorio/rDock_CMTR_LC/2pxcA_model/inputs_sah

>  <Rbt.Executable>
rbdock ($Id: //depot/dev/client3/rdock/2013.1/src/exe/rbdock.cxx#4 $)

>  <Rbt.Library>
libRbt.so (2013.1, Build901 2013/11/27)

>  <Rbt.Parameter_File>
/home/adria/Escritorio/rDock_2013.1_src/data/scripts/dock.prm

>  <Rbt.Receptor>
sah_rdock.prm

>  <SCORE>
-28.1155

>  <SCORE.INTER>
-12.5637

>  <SCORE.INTER.CONST>
1

>  <SCORE.INTER.POLAR>
-1.22397

>  <SCORE.INTER.REPUL>
0.00847219

>  <SCORE.INTER.ROT>
3

>  <SCORE.INTER.VDW>
-16.8446

>  <SCORE.INTER.norm>
-0.571078

>  <SCORE.INTRA>
-8.78744

>  <SCORE.INTRA.DIHEDRAL>
-2.40246

>  <SCORE.INTRA.DIHEDRAL.0>
3.98698

>  <SCORE.INTRA.POLAR>
0

>  <SCORE.INTRA.POLAR.0>
0

>  <SCORE.INTRA.REPUL>
0

>  <SCORE.INTRA.REPUL.0>
0

>  <SCORE.INTRA.VDW>
-7.5862

>  <SCORE.INTRA.VDW.0>
6.44422

>  <SCORE.INTRA.norm>
-0.399429

>  <SCORE.RESTR>
0

>  <SCORE.RESTR.CAVITY>
0

>  <SCORE.RESTR.norm>
0

>  <SCORE.SYSTEM>
-6.76439

>  <SCORE.SYSTEM.CONST>
0

>  <SCORE.SYSTEM.DIHEDRAL>
6.0909

>  <SCORE.SYSTEM.POLAR>
-3.68747

>  <SCORE.SYSTEM.VDW>
2.72756

>  <SCORE.SYSTEM.norm>
-0.307472

>  <SCORE.heavy>
22

>  <SCORE.norm>
-1.27798

$$$$
F3168-1684
  rDOCK(R)          3D
libRbt.so/2013.1/901 2013/11/27
 24 26  0  0  0  0  0  0  0  0999 V2000
  -20.2985   16.8656  -15.8864 F   0  0  0  0  0  0
  -21.0392   18.0002  -16.0800 C   0  0  0  0  0  0
  -21.4743   17.9262  -17.3702 F   0  0  0  0  0  0
  -22.1476   17.8536  -15.3042 F   0  0  0  0  0  0
  -20.2794   19.2675  -15.7847 C   0  0  0  0  0  0
  -19.0602   19.5868  -16.4260 C   0  0  0  0  0  0
  -18.5073   18.7256  -17.4019 N   0  0  0  0  0  0
  -17.1725   18.5119  -17.7092 C   0  0  0  0  0  0
  -16.2741   19.4349  -17.5141 N   0  0  0  0  0  0
  -14.9457   19.2256  -17.7613 C   0  0  0  0  0  0
  -13.7712   20.4032  -17.5396 S   0  0  0  0  0  0
  -14.5303   18.0009  -18.2079 N   0  3  0  0  0  0
  -13.5383   17.8883  -18.3690 H   0  0  0  0  0  0
  -15.4186   16.9615  -18.4584 C   0  0  0  0  0  0
  -16.7783   17.1651  -18.2353 C   0  0  0  0  0  0
  -17.6855   16.1422  -18.5349 C   0  0  0  0  0  0
  -17.2173   14.9205  -19.0286 C   0  0  0  0  0  0
  -15.8511   14.7203  -19.2294 C   0  0  0  0  0  0
  -14.9466   15.7434  -18.9471 C   0  0  0  0  0  0
  -18.4075   20.7689  -16.0373 C   0  0  0  0  0  0
  -18.9387   21.6185  -15.0631 C   0  0  0  0  0  0
  -20.1373   21.2998  -14.4414 C   0  0  0  0  0  0
  -20.8013   20.1295  -14.7956 C   0  0  0  0  0  0
  -19.1942   18.1827  -17.9127 H   0  0  0  0  0  0
  1  2  1  0  0  0
  2  3  1  0  0  0
  2  4  1  0  0  0
  2  5  1  0  0  0
  5  6  2  0  0  0
  5 23  1  0  0  0
  6  7  1  0  0  0
  6 20  1  0  0  0
  7  8  1  0  0  0
  7 24  1  0  0  0
  8  9  1  0  0  0
  8 15  2  0  0  0
  9 10  1  0  0  0
 10 11  2  0  0  0
 10 12  1  0  0  0
 12 13  1  0  0  0
 12 14  2  0  0  0
 14 15  1  0  0  0
 14 19  1  0  0  0
 15 16  1  0  0  0
 16 17  2  0  0  0
 17 18  1  0  0  0
 18 19  2  0  0  0
 20 21  2  0  0  0
 21 22  1  0  0  0
 22 23  2  0  0  0
M  END
>  <CHROM.0>
-176.11301269,-167.65053233,-165.99575953,65.28053142,35.78484191,-59.65720820
83.13028274,-164.93281867

>  <CHROM.1>
56.50351647,-149.14159368,-27.77245232,-17.90057061,18.41017685,-17.06690242
2.77464383,0.31391394,0.44216738

>  <Name>
F3168-1684

>  <RI>
2.06872e+07

>  <Rbt.Current_Directory>
/home/adria/Escritorio/rDock_CMTR_LC/2pxcA_model/inputs_sah

>  <Rbt.Executable>
rbdock ($Id: //depot/dev/client3/rdock/2013.1/src/exe/rbdock.cxx#4 $)

>  <Rbt.Library>
libRbt.so (2013.1, Build901 2013/11/27)

>  <Rbt.Parameter_File>
/home/adria/Escritorio/rDock_2013.1_src/data/scripts/dock.prm

>  <Rbt.Receptor>
sah_rdock.prm

>  <SCORE>
-19.4574

>  <SCORE.INTER>
-18.7841

>  <SCORE.INTER.CONST>
1

>  <SCORE.INTER.POLAR>
-1.58081

>  <SCORE.INTER.REPUL>
0.154407

>  <SCORE.INTER.ROT>
3

>  <SCORE.INTER.VDW>
-22.5814

>  <SCORE.INTER.norm>
-0.853822

>  <SCORE.INTRA>
-6.87529

>  <SCORE.INTRA.DIHEDRAL>
2.53352

>  <SCORE.INTRA.DIHEDRAL.0>
3.98698

>  <SCORE.INTRA.POLAR>
0

>  <SCORE.INTRA.POLAR.0>
0

>  <SCORE.INTRA.REPUL>
0

>  <SCORE.INTRA.REPUL.0>
0

>  <SCORE.INTRA.VDW>
-8.14205

>  <SCORE.INTRA.VDW.0>
6.44422

>  <SCORE.INTRA.norm>
-0.312513

>  <SCORE.RESTR>
0

>  <SCORE.RESTR.CAVITY>
0

>  <SCORE.RESTR.norm>
0

>  <SCORE.SYSTEM>
6.20194

>  <SCORE.SYSTEM.CONST>
0

>  <SCORE.SYSTEM.DIHEDRAL>
5.41765

>  <SCORE.SYSTEM.POLAR>
-3.28904

>  <SCORE.SYSTEM.VDW>
14.6759

>  <SCORE.SYSTEM.norm>
0.281906

>  <SCORE.heavy>
22

>  <SCORE.norm>
-0.884429

$$$$
F3168-1684
  rDOCK(R)          3D
libRbt.so/2013.1/901 2013/11/27
 24 26  0  0  0  0  0  0  0  0999 V2000
  -21.6255   19.5470  -10.8428 F   0  0  0  0  0  0
  -21.2223   18.6802  -11.8222 C   0  0  0  0  0  0
  -20.7274   17.5969  -11.1581 F   0  0  0  0  0  0
  -22.3629   18.2550  -12.4305 F   0  0  0  0  0  0
  -20.2336   19.2847  -12.7854 C   0  0  0  0  0  0
  -20.2601   20.6536  -13.1386 C   0  0  0  0  0  0
  -21.2177   21.5290  -12.5761 N   0  0  0  0  0  0
  -21.0379   22.8220  -12.1096 C   0  0  0  0  0  0
  -19.9824   23.1559  -11.4229 N   0  0  0  0  0  0
  -19.7614   24.4370  -10.9993 C   0  0  0  0  0  0
  -18.4222   24.8898  -10.0952 S   0  0  0  0  0  0
  -20.6616   25.4158  -11.3210 N   0  3  0  0  0  0
  -20.4535   26.3500  -10.9945 H   0  0  0  0  0  0
  -21.8229   25.1500  -12.0372 C   0  0  0  0  0  0
  -22.0761   23.8459  -12.4556 C   0  0  0  0  0  0
  -23.2681   23.5591  -13.1311 C   0  0  0  0  0  0
  -24.1779   24.5860  -13.4017 C   0  0  0  0  0  0
  -23.9049   25.8926  -12.9956 C   0  0  0  0  0  0
  -22.7257   26.1782  -12.3082 C   0  0  0  0  0  0
  -19.3249   21.1021  -14.0866 C   0  0  0  0  0  0
  -18.3844   20.2413  -14.6591 C   0  0  0  0  0  0
  -18.3627   18.9003  -14.3043 C   0  0  0  0  0  0
  -19.2844   18.4232  -13.3775 C   0  0  0  0  0  0
  -22.1576   21.1508  -12.5453 H   0  0  0  0  0  0
  1  2  1  0  0  0
  2  3  1  0  0  0
  2  4  1  0  0  0
  2  5  1  0  0  0
  5  6  2  0  0  0
  5 23  1  0  0  0
  6  7  1  0  0  0
  6 20  1  0  0  0
  7  8  1  0  0  0
  7 24  1  0  0  0
  8  9  1  0  0  0
  8 15  2  0  0  0
  9 10  1  0  0  0
 10 11  2  0  0  0
 10 12  1  0  0  0
 12 13  1  0  0  0
 12 14  2  0  0  0
 14 15  1  0  0  0
 14 19  1  0  0  0
 15 16  1  0  0  0
 16 17  2  0  0  0
 17 18  1  0  0  0
 18 19  2  0  0  0
 20 21  2  0  0  0
 21 22  1  0  0  0
 22 23  2  0  0  0
M  END
>  <CHROM.0>
-62.92538416,-168.39973025,-9.56541476,63.58099663,-31.06636749,-59.71675659
82.59967504,-164.08847640

>  <CHROM.1>
-32.68162571,137.74849538,-40.75010117,-20.83271737,22.00072408,-12.23341765
1.38763836,0.26354522,-2.96728303

>  <Name>
F3168-1684

>  <RI>
2.06872e+07

>  <Rbt.Current_Directory>
/home/adria/Escritorio/rDock_CMTR_LC/2pxcA_model/inputs_sah

>  <Rbt.Executable>
rbdock ($Id: //depot/dev/client3/rdock/2013.1/src/exe/rbdock.cxx#4 $)

>  <Rbt.Library>
libRbt.so (2013.1, Build901 2013/11/27)

>  <Rbt.Parameter_File>
/home/adria/Escritorio/rDock_2013.1_src/data/scripts/dock.prm

>  <Rbt.Receptor>
sah_rdock.prm

>  <SCORE>
-27.5411

>  <SCORE.INTER>
-17.2232

>  <SCORE.INTER.CONST>
1

>  <SCORE.INTER.POLAR>
0

>  <SCORE.INTER.REPUL>
0.0466745

>  <SCORE.INTER.ROT>
3

>  <SCORE.INTER.VDW>
-25.8566

>  <SCORE.INTER.norm>
-0.782873

>  <SCORE.INTRA>
-4.18874

>  <SCORE.INTRA.DIHEDRAL>
8.39095

>  <SCORE.INTRA.DIHEDRAL.0>
3.98698

>  <SCORE.INTRA.POLAR>
0

>  <SCORE.INTRA.POLAR.0>
0

>  <SCORE.INTRA.REPUL>
0

>  <SCORE.INTRA.REPUL.0>
0

>  <SCORE.INTRA.VDW>
-8.38422

>  <SCORE.INTRA.VDW.0>
6.44422

>  <SCORE.INTRA.norm>
-0.190397

>  <SCORE.RESTR>
0

>  <SCORE.RESTR.CAVITY>
0

>  <SCORE.RESTR.norm>
0

>  <SCORE.SYSTEM>
-6.12915

>  <SCORE.SYSTEM.CONST>
0

>  <SCORE.SYSTEM.DIHEDRAL>
9.008

>  <SCORE.SYSTEM.POLAR>
-4.24437

>  <SCORE.SYSTEM.VDW>
3.79771

>  <SCORE.SYSTEM.norm>
-0.278598

>  <SCORE.heavy>
22

>  <SCORE.norm>
-1.25187

$$$$
F3168-1684
  rDOCK(R)          3D
libRbt.so/2013.1/901 2013/11/27
 24 26  0  0  0  0  0  0  0  0999 V2000
  -21.3801   17.5109  -15.9256 F   0  0  0  0  0  0
  -20.8289   18.0371  -14.7887 C   0  0  0  0  0  0
  -21.8589   18.1213  -13.8991 F   0  0  0  0  0  0
  -19.9959   17.0764  -14.3041 F   0  0  0  0  0  0
  -20.1355   19.3555  -15.0156 C   0  0  0  0  0  0
  -18.9876   19.4771  -15.8324 C   0  0  0  0  0  0
  -18.4486   18.3514  -16.4972 N   0  0  0  0  0  0
  -17.2080   18.2165  -17.1011 C   0  0  0  0  0  0
  -16.3079   19.1548  -17.0214 N   0  0  0  0  0  0
  -15.0606   19.0192  -17.5649 C   0  0  0  0  0  0
  -13.8905   20.2198  -17.4958 S   0  0  0  0  0  0
  -14.7267   17.8530  -18.1977 N   0  3  0  0  0  0
  -13.7912   17.7932  -18.5769 H   0  0  0  0  0  0
  -15.6266   16.8036  -18.3438 C   0  0  0  0  0  0
  -16.9095   16.9344  -17.8174 C   0  0  0  0  0  0
  -17.8389   15.9048  -18.0058 C   0  0  0  0  0  0
  -17.4637   14.7475  -18.6953 C   0  0  0  0  0  0
  -16.1697   14.6185  -19.2011 C   0  0  0  0  0  0
  -15.2468   15.6496  -19.0290 C   0  0  0  0  0  0
  -18.3885   20.7441  -15.9332 C   0  0  0  0  0  0
  -18.9054   21.8592  -15.2680 C   0  0  0  0  0  0
  -20.0342   21.7322  -14.4715 C   0  0  0  0  0  0
  -20.6427   20.4877  -14.3414 C   0  0  0  0  0  0
  -19.0550   17.5392  -16.4957 H   0  0  0  0  0  0
  1  2  1  0  0  0
  2  3  1  0  0  0
  2  4  1  0  0  0
  2  5  1  0  0  0
  5  6  2  0  0  0
  5 23  1  0  0  0
  6  7  1  0  0  0
  6 20  1  0  0  0
  7  8  1  0  0  0
  7 24  1  0  0  0
  8  9  1  0  0  0
  8 15  2  0  0  0
  9 10  1  0  0  0
 10 11  2  0  0  0
 10 12  1  0  0  0
 12 13  1  0  0  0
 12 14  2  0  0  0
 14 15  1  0  0  0
 14 19  1  0  0  0
 15 16  1  0  0  0
 16 17  2  0  0  0
 17 18  1  0  0  0
 18 19  2  0  0  0
 20 21  2  0  0  0
 21 22  1  0  0  0
 22 23  2  0  0  0
M  END
>  <CHROM.0>
-59.73170904,-73.68851273,-48.46469661,63.73539541,168.29705103,60.12025266
83.67872971,-162.13583883

>  <CHROM.1>
-64.60608146,-165.54590500,5.66650712,-17.91066895,18.34184456,-16.54027524
2.68277841,0.45907203,0.38188829

>  <Name>
F3168-1684

>  <RI>
2.06872e+07

>  <Rbt.Current_Directory>
/home/adria/Escritorio/rDock_CMTR_LC/2pxcA_model/inputs_sah

>  <Rbt.Executable>
rbdock ($Id: //depot/dev/client3/rdock/2013.1/src/exe/rbdock.cxx#4 $)

>  <Rbt.Library>
libRbt.so (2013.1, Build901 2013/11/27)

>  <Rbt.Parameter_File>
/home/adria/Escritorio/rDock_2013.1_src/data/scripts/dock.prm

>  <Rbt.Receptor>
sah_rdock.prm

>  <SCORE>
-27.6727

>  <SCORE.INTER>
-16.1652

>  <SCORE.INTER.CONST>
1

>  <SCORE.INTER.POLAR>
-0.567416

>  <SCORE.INTER.REPUL>
0.00969424

>  <SCORE.INTER.ROT>
3

>  <SCORE.INTER.VDW>
-22.6845

>  <SCORE.INTER.norm>
-0.734784

>  <SCORE.INTRA>
-8.87072

>  <SCORE.INTRA.DIHEDRAL>
-2.51378

>  <SCORE.INTRA.DIHEDRAL.0>
3.98698

>  <SCORE.INTRA.POLAR>
0

>  <SCORE.INTRA.POLAR.0>
0

>  <SCORE.INTRA.REPUL>
0

>  <SCORE.INTRA.REPUL.0>
0

>  <SCORE.INTRA.VDW>
-7.61383

>  <SCORE.INTRA.VDW.0>
6.44422

>  <SCORE.INTRA.norm>
-0.403215

>  <SCORE.RESTR>
0

>  <SCORE.RESTR.CAVITY>
0

>  <SCORE.RESTR.norm>
0

>  <SCORE.SYSTEM>
-2.63674

>  <SCORE.SYSTEM.CONST>
0

>  <SCORE.SYSTEM.DIHEDRAL>
3.59515

>  <SCORE.SYSTEM.POLAR>
-3.90922

>  <SCORE.SYSTEM.REPUL>
0.0397418

>  <SCORE.SYSTEM.VDW>
8.65834

>  <SCORE.SYSTEM.norm>
-0.119852

>  <SCORE.heavy>
22

>  <SCORE.norm>
-1.25785

$$$$
F3168-1684
  rDOCK(R)          3D
libRbt.so/2013.1/901 2013/11/27
 24 26  0  0  0  0  0  0  0  0999 V2000
  -22.8534   18.9771  -11.4289 F   0  0  0  0  0  0
  -22.4012   18.7486  -12.7004 C   0  0  0  0  0  0
  -22.5969   17.4161  -12.9143 F   0  0  0  0  0  0
  -23.2749   19.3901  -13.5232 F   0  0  0  0  0  0
  -20.9723   19.1771  -12.9126 C   0  0  0  0  0  0
  -20.5384   20.5045  -12.6902 C   0  0  0  0  0  0
  -21.4385   21.4940  -12.2314 N   0  0  0  0  0  0
  -21.1716   22.8075  -11.8773 C   0  0  0  0  0  0
  -20.0683   23.1360  -11.2677 N   0  0  0  0  0  0
  -19.7630   24.4322  -10.9571 C   0  0  0  0  0  0
  -18.3600   24.8805  -10.1533 S   0  0  0  0  0  0
  -20.6281   25.4302  -11.3140 N   0  3  0  0  0  0
  -20.3579   26.3742  -11.0722 H   0  0  0  0  0  0
  -21.8352   25.1729  -11.9536 C   0  0  0  0  0  0
  -22.1734   23.8559  -12.2557 C   0  0  0  0  0  0
  -23.4101   23.5824  -12.8516 C   0  0  0  0  0  0
  -24.2798   24.6327  -13.1611 C   0  0  0  0  0  0
  -23.9223   25.9502  -12.8723 C   0  0  0  0  0  0
  -22.6979   26.2240  -12.2639 C   0  0  0  0  0  0
  -19.1953   20.8085  -12.9699 C   0  0  0  0  0  0
  -18.3023   19.8407  -13.4378 C   0  0  0  0  0  0
  -18.7350   18.5398  -13.6498 C   0  0  0  0  0  0
  -20.0625   18.2106  -13.3941 C   0  0  0  0  0  0
  -22.4043   21.1890  -12.1904 H   0  0  0  0  0  0
  1  2  1  0  0  0
  2  3  1  0  0  0
  2  4  1  0  0  0
  2  5  1  0  0  0
  5  6  2  0  0  0
  5 23  1  0  0  0
  6  7  1  0  0  0
  6 20  1  0  0  0
  7  8  1  0  0  0
  7 24  1  0  0  0
  8  9  1  0  0  0
  8 15  2  0  0  0
  9 10  1  0  0  0
 10 11  2  0  0  0
 10 12  1  0  0  0
 12 13  1  0  0  0
 12 14  2  0  0  0
 14 15  1  0  0  0
 14 19  1  0  0  0
 15 16  1  0  0  0
 16 17  2  0  0  0
 17 18  1  0  0  0
 18 19  2  0  0  0
 20 21  2  0  0  0
 21 22  1  0  0  0
 22 23  2  0  0  0
M  END
>  <CHROM.0>
-60.78300635,-72.92101202,-167.08324756,64.09304672,-30.68426190,-58.26386783
-37.82805968,-162.94556269

>  <CHROM.1>
-57.71895432,175.23375949,-36.56000722,-21.21466564,21.97010960,-12.27085395
1.60328486,0.23923508,-2.93415275

>  <Name>
F3168-1684

>  <RI>
2.06872e+07

>  <Rbt.Current_Directory>
/home/adria/Escritorio/rDock_CMTR_LC/2pxcA_model/inputs_sah

>  <Rbt.Executable>
rbdock ($Id: //depot/dev/client3/rdock/2013.1/src/exe/rbdock.cxx#4 $)

>  <Rbt.Library>
libRbt.so (2013.1, Build901 2013/11/27)

>  <Rbt.Parameter_File>
/home/adria/Escritorio/rDock_2013.1_src/data/scripts/dock.prm

>  <Rbt.Receptor>
sah_rdock.prm

>  <SCORE>
-30.0657

>  <SCORE.INTER>
-15.2995

>  <SCORE.INTER.CONST>
1

>  <SCORE.INTER.POLAR>
0

>  <SCORE.INTER.REPUL>
0.0172406

>  <SCORE.INTER.ROT>
3

>  <SCORE.INTER.VDW>
-23.7857

>  <SCORE.INTER.norm>
-0.695431

>  <SCORE.INTRA>
-7.2409

>  <SCORE.INTRA.DIHEDRAL>
1.44154

>  <SCORE.INTRA.DIHEDRAL.0>
3.98698

>  <SCORE.INTRA.POLAR>
0

>  <SCORE.INTRA.POLAR.0>
0

>  <SCORE.INTRA.REPUL>
0

>  <SCORE.INTRA.REPUL.0>
0

>  <SCORE.INTRA.VDW>
-7.96167

>  <SCORE.INTRA.VDW.0>
6.44422

>  <SCORE.INTRA.norm>
-0.329132

>  <SCORE.RESTR>
0

>  <SCORE.RESTR.CAVITY>
0

>  <SCORE.RESTR.norm>
0

>  <SCORE.SYSTEM>
-7.52534

>  <SCORE.SYSTEM.CONST>
0

>  <SCORE.SYSTEM.DIHEDRAL>
6.24872

>  <SCORE.SYSTEM.POLAR>
-3.96103

>  <SCORE.SYSTEM.REPUL>
0.0383942

>  <SCORE.SYSTEM.VDW>
2.62584

>  <SCORE.SYSTEM.norm>
-0.342061

>  <SCORE.heavy>
22

>  <SCORE.norm>
-1.36662

$$$$
F3168-1684
  rDOCK(R)          3D
libRbt.so/2013.1/901 2013/11/27
 24 26  0  0  0  0  0  0  0  0999 V2000
  -18.5519   24.8704  -11.2043 F   0  0  0  0  0  0
  -19.7585   25.0710  -10.5902 C   0  0  0  0  0  0
  -19.7389   24.2620   -9.4927 F   0  0  0  0  0  0
  -19.7226   26.3453  -10.1143 F   0  0  0  0  0  0
  -20.9380   24.8142  -11.4921 C   0  0  0  0  0  0
  -21.0694   23.6263  -12.2479 C   0  0  0  0  0  0
  -20.0937   22.6057  -12.1695 N   0  0  0  0  0  0
  -20.2489   21.2440  -12.3784 C   0  0  0  0  0  0
  -19.4313   20.5761  -13.1416 N   0  0  0  0  0  0
  -19.5360   19.2244  -13.3183 C   0  0  0  0  0  0
  -18.5106   18.3435  -14.3123 S   0  0  0  0  0  0
  -20.5157   18.5344  -12.6579 N   0  3  0  0  0  0
  -20.5504   17.5354  -12.8113 H   0  0  0  0  0  0
  -21.4417   19.1648  -11.8348 C   0  0  0  0  0  0
  -21.3647   20.5448  -11.6628 C   0  0  0  0  0  0
  -22.3246   21.1950  -10.8784 C   0  0  0  0  0  0
  -23.3324   20.4521  -10.2557 C   0  0  0  0  0  0
  -23.3882   19.0675  -10.4185 C   0  0  0  0  0  0
  -22.4429   18.4192  -11.2126 C   0  0  0  0  0  0
  -22.1828   23.5121  -13.0975 C   0  0  0  0  0  0
  -23.1442   24.5218  -13.1928 C   0  0  0  0  0  0
  -23.0099   25.6826  -12.4450 C   0  0  0  0  0  0
  -21.9114   25.8309  -11.6040 C   0  0  0  0  0  0
  -19.1602   22.9398  -11.9590 H   0  0  0  0  0  0
  1  2  1  0  0  0
  2  3  1  0  0  0
  2  4  1  0  0  0
  2  5  1  0  0  0
  5  6  2  0  0  0
  5 23  1  0  0  0
  6  7  1  0  0  0
  6 20  1  0  0  0
  7  8  1  0  0  0
  7 24  1  0  0  0
  8  9  1  0  0  0
  8 15  2  0  0  0
  9 10  1  0  0  0
 10 11  2  0  0  0
 10 12  1  0  0  0
 12 13  1  0  0  0
 12 14  2  0  0  0
 14 15  1  0  0  0
 14 19  1  0  0  0
 15 16  1  0  0  0
 16 17  2  0  0  0
 17 18  1  0  0  0
 18 19  2  0  0  0
 20 21  2  0  0  0
 21 22  1  0  0  0
 22 23  2  0  0  0
M  END
>  <CHROM.0>
177.73680374,-71.69104170,-8.13513675,66.67074094,-29.79106085,-176.11243330
83.37261165,-164.69008326

>  <CHROM.1>
50.45972234,152.68477435,131.88370832,-20.77836626,22.09476098,-11.87709505
-1.62634991,-0.35216497,-2.90952112

>  <Name>
F3168-1684

>  <RI>
2.06872e+07

>  <Rbt.Current_Directory>
/home/adria/Escritorio/rDock_CMTR_LC/2pxcA_model/inputs_sah

>  <Rbt.Executable>
rbdock ($Id: //depot/dev/client3/rdock/2013.1/src/exe/rbdock.cxx#4 $)

>  <Rbt.Library>
libRbt.so (2013.1, Build901 2013/11/27)

>  <Rbt.Parameter_File>
/home/adria/Escritorio/rDock_2013.1_src/data/scripts/dock.prm

>  <Rbt.Receptor>
sah_rdock.prm

>  <SCORE>
-27.2164

>  <SCORE.INTER>
-15.6261

>  <SCORE.INTER.CONST>
1

>  <SCORE.INTER.POLAR>
-0.782252

>  <SCORE.INTER.REPUL>
0.00535213

>  <SCORE.INTER.ROT>
3

>  <SCORE.INTER.VDW>
-21.3932

>  <SCORE.INTER.norm>
-0.710279

>  <SCORE.INTRA>
-4.72018

>  <SCORE.INTRA.DIHEDRAL>
6.81907

>  <SCORE.INTRA.DIHEDRAL.0>
3.98698

>  <SCORE.INTRA.POLAR>
0

>  <SCORE.INTRA.POLAR.0>
0

>  <SCORE.INTRA.REPUL>
0

>  <SCORE.INTRA.REPUL.0>
0

>  <SCORE.INTRA.VDW>
-8.12972

>  <SCORE.INTRA.VDW.0>
6.44422

>  <SCORE.INTRA.norm>
-0.214554

>  <SCORE.RESTR>
0

>  <SCORE.RESTR.CAVITY>
0

>  <SCORE.RESTR.norm>
0

>  <SCORE.SYSTEM>
-6.87011

>  <SCORE.SYSTEM.CONST>
0

>  <SCORE.SYSTEM.DIHEDRAL>
9.53464

>  <SCORE.SYSTEM.POLAR>
-4.55731

>  <SCORE.SYSTEM.REPUL>
0.0361147

>  <SCORE.SYSTEM.VDW>
3.67686

>  <SCORE.SYSTEM.norm>
-0.312278

>  <SCORE.heavy>
22

>  <SCORE.norm>
-1.23711

$$$$
F3168-1684
  rDOCK(R)          3D
libRbt.so/2013.1/901 2013/11/27
 24 26  0  0  0  0  0  0  0  0999 V2000
  -21.2651   19.1965  -17.6223 F   0  0  0  0  0  0
  -21.4076   18.8134  -16.3161 C   0  0  0  0  0  0
  -22.6506   19.2404  -15.9528 F   0  0  0  0  0  0
  -21.4717   17.4542  -16.3355 F   0  0  0  0  0  0
  -20.3173   19.3369  -15.4173 C   0  0  0  0  0  0
  -18.9499   19.0549  -15.6417 C   0  0  0  0  0  0
  -18.5428   18.2756  -16.7493 N   0  0  0  0  0  0
  -17.2725   18.1342  -17.2862 C   0  0  0  0  0  0
  -16.3731   19.0678  -17.1584 N   0  0  0  0  0  0
  -15.0993   18.9256  -17.6348 C   0  0  0  0  0  0
  -13.9283   20.1202  -17.5032 S   0  0  0  0  0  0
  -14.7382   17.7576  -18.2490 N   0  3  0  0  0  0
  -13.7841   17.6930  -18.5778 H   0  0  0  0  0  0
  -15.6345   16.7129  -18.4431 C   0  0  0  0  0  0
  -16.9430   16.8505  -17.9858 C   0  0  0  0  0  0
  -17.8663   15.8257  -18.2236 C   0  0  0  0  0  0
  -17.4609   14.6664  -18.8923 C   0  0  0  0  0  0
  -16.1425   14.5306  -19.3284 C   0  0  0  0  0  0
  -15.2247   15.5569  -19.1072 C   0  0  0  0  0  0
  -18.0196   19.5491  -14.7118 C   0  0  0  0  0  0
  -18.4140   20.3075  -13.6062 C   0  0  0  0  0  0
  -19.7572   20.5829  -13.3953 C   0  0  0  0  0  0
  -20.7038   20.0966  -14.2916 C   0  0  0  0  0  0
  -19.2889   17.7364  -17.1736 H   0  0  0  0  0  0
  1  2  1  0  0  0
  2  3  1  0  0  0
  2  4  1  0  0  0
  2  5  1  0  0  0
  5  6  2  0  0  0
  5 23  1  0  0  0
  6  7  1  0  0  0
  6 20  1  0  0  0
  7  8  1  0  0  0
  7 24  1  0  0  0
  8  9  1  0  0  0
  8 15  2  0  0  0
  9 10  1  0  0  0
 10 11  2  0  0  0
 10 12  1  0  0  0
 12 13  1  0  0  0
 12 14  2  0  0  0
 14 15  1  0  0  0
 14 19  1  0  0  0
 15 16  1  0  0  0
 16 17  2  0  0  0
 17 18  1  0  0  0
 18 19  2  0  0  0
 20 21  2  0  0  0
 21 22  1  0  0  0
 22 23  2  0  0  0
M  END
>  <CHROM.0>
-61.03897048,65.90647678,-47.46151630,64.81340702,-30.66469055,177.90384561
-156.83327175,-160.81732775

>  <CHROM.1>
-58.16734476,164.93434413,-26.29636919,-18.03769480,18.32105102,-16.85139208
2.61530483,0.19451812,0.63766450

>  <Name>
F3168-1684

>  <RI>
2.06872e+07

>  <Rbt.Current_Directory>
/home/adria/Escritorio/rDock_CMTR_LC/2pxcA_model/inputs_sah

>  <Rbt.Executable>
rbdock ($Id: //depot/dev/client3/rdock/2013.1/src/exe/rbdock.cxx#4 $)

>  <Rbt.Library>
libRbt.so (2013.1, Build901 2013/11/27)

>  <Rbt.Parameter_File>
/home/adria/Escritorio/rDock_2013.1_src/data/scripts/dock.prm

>  <Rbt.Receptor>
sah_rdock.prm

>  <SCORE>
-30.638

>  <SCORE.INTER>
-15.4831

>  <SCORE.INTER.CONST>
1

>  <SCORE.INTER.POLAR>
-0.620803

>  <SCORE.INTER.REPUL>
0.00226074

>  <SCORE.INTER.ROT>
3

>  <SCORE.INTER.VDW>
-21.7836

>  <SCORE.INTER.norm>
-0.703775

>  <SCORE.INTRA>
-7.75001

>  <SCORE.INTRA.DIHEDRAL>
0.321026

>  <SCORE.INTRA.DIHEDRAL.0>
3.98698

>  <SCORE.INTRA.POLAR>
0

>  <SCORE.INTRA.POLAR.0>
0

>  <SCORE.INTRA.REPUL>
0

>  <SCORE.INTRA.REPUL.0>
0

>  <SCORE.INTRA.VDW>
-7.91053

>  <SCORE.INTRA.VDW.0>
6.44422

>  <SCORE.INTRA.norm>
-0.352273

>  <SCORE.RESTR>
0

>  <SCORE.RESTR.CAVITY>
0

>  <SCORE.RESTR.norm>
0

>  <SCORE.SYSTEM>
-7.40492

>  <SCORE.SYSTEM.CONST>
0

>  <SCORE.SYSTEM.DIHEDRAL>
5.83749

>  <SCORE.SYSTEM.POLAR>
-3.74977

>  <SCORE.SYSTEM.VDW>
2.42556

>  <SCORE.SYSTEM.norm>
-0.336587

>  <SCORE.heavy>
22

>  <SCORE.norm>
-1.39264

$$$$
F3168-1684
  rDOCK(R)          3D
libRbt.so/2013.1/901 2013/11/27
 24 26  0  0  0  0  0  0  0  0999 V2000
  -22.3096   18.5578  -12.8537 F   0  0  0  0  0  0
  -20.9440   18.6456  -12.8805 C   0  0  0  0  0  0
  -20.5518   18.5005  -11.5827 F   0  0  0  0  0  0
  -20.5154   17.5271  -13.5264 F   0  0  0  0  0  0
  -20.4391   19.9176  -13.5113 C   0  0  0  0  0  0
  -20.8258   21.1972  -13.0503 C   0  0  0  0  0  0
  -21.6992   21.3367  -11.9468 N   0  0  0  0  0  0
  -22.2720   22.4924  -11.4388 C   0  0  0  0  0  0
  -22.0869   23.6494  -12.0081 N   0  0  0  0  0  0
  -22.6852   24.7917  -11.5535 C   0  0  0  0  0  0
  -22.4468   26.2976  -12.2542 S   0  0  0  0  0  0
  -23.5279   24.7263  -10.4776 N   0  3  0  0  0  0
  -23.9550   25.5937  -10.1813 H   0  0  0  0  0  0
  -23.7736   23.5387   -9.7982 C   0  0  0  0  0  0
  -23.1532   22.3698  -10.2329 C   0  0  0  0  0  0
  -23.3530   21.1800   -9.5232 C   0  0  0  0  0  0
  -24.1916   21.1705   -8.4043 C   0  0  0  0  0  0
  -24.8239   22.3431   -7.9894 C   0  0  0  0  0  0
  -24.6139   23.5333   -8.6849 C   0  0  0  0  0  0
  -20.3374   22.3170  -13.7445 C   0  0  0  0  0  0
  -19.4859   22.1885  -14.8452 C   0  0  0  0  0  0
  -19.1083   20.9295  -15.2888 C   0  0  0  0  0  0
  -19.5856   19.8008  -14.6300 C   0  0  0  0  0  0
  -21.9473   20.4608  -11.5011 H   0  0  0  0  0  0
  1  2  1  0  0  0
  2  3  1  0  0  0
  2  4  1  0  0  0
  2  5  1  0  0  0
  5  6  2  0  0  0
  5 23  1  0  0  0
  6  7  1  0  0  0
  6 20  1  0  0  0
  7  8  1  0  0  0
  7 24  1  0  0  0
  8  9  1  0  0  0
  8 15  2  0  0  0
  9 10  1  0  0  0
 10 11  2  0  0  0
 10 12  1  0  0  0
 12 13  1  0  0  0
 12 14  2  0  0  0
 14 15  1  0  0  0
 14 19  1  0  0  0
 15 16  1  0  0  0
 16 17  2  0  0  0
 17 18  1  0  0  0
 18 19  2  0  0  0
 20 21  2  0  0  0
 21 22  1  0  0  0
 22 23  2  0  0  0
M  END
>  <CHROM.0>
-61.18457076,-71.92278461,-164.30296996,63.80256969,168.51322944,-59.52535922
-36.96240846,-158.22488914

>  <CHROM.1>
55.97440089,-173.71130409,2.96342329,-21.93592751,21.78024838,-11.89136685
0.67081405,-0.92284178,2.96861701

>  <Name>
F3168-1684

>  <RI>
2.06872e+07

>  <Rbt.Current_Directory>
/home/adria/Escritorio/rDock_CMTR_LC/2pxcA_model/inputs_sah

>  <Rbt.Executable>
rbdock ($Id: //depot/dev/client3/rdock/2013.1/src/exe/rbdock.cxx#4 $)

>  <Rbt.Library>
libRbt.so (2013.1, Build901 2013/11/27)

>  <Rbt.Parameter_File>
/home/adria/Escritorio/rDock_2013.1_src/data/scripts/dock.prm

>  <Rbt.Receptor>
sah_rdock.prm

>  <SCORE>
-32.1529

>  <SCORE.INTER>
-20.6202

>  <SCORE.INTER.CONST>
1

>  <SCORE.INTER.POLAR>
-3.36516

>  <SCORE.INTER.REPUL>
0.0068308

>  <SCORE.INTER.ROT>
3

>  <SCORE.INTER.VDW>
-17.6128

>  <SCORE.INTER.norm>
-0.937283

>  <SCORE.INTRA>
-9.022

>  <SCORE.INTRA.DIHEDRAL>
-3.14303

>  <SCORE.INTRA.DIHEDRAL.0>
3.98698

>  <SCORE.INTRA.POLAR>
0

>  <SCORE.INTRA.POLAR.0>
0

>  <SCORE.INTRA.REPUL>
0

>  <SCORE.INTRA.REPUL.0>
0

>  <SCORE.INTRA.VDW>
-7.45049

>  <SCORE.INTRA.VDW.0>
6.44422

>  <SCORE.INTRA.norm>
-0.410091

>  <SCORE.RESTR>
0

>  <SCORE.RESTR.CAVITY>
0

>  <SCORE.RESTR.norm>
0

>  <SCORE.SYSTEM>
-2.51068

>  <SCORE.SYSTEM.CONST>
0

>  <SCORE.SYSTEM.DIHEDRAL>
3.783

>  <SCORE.SYSTEM.POLAR>
-3.88323

>  <SCORE.SYSTEM.REPUL>
0.0365554

>  <SCORE.SYSTEM.VDW>
8.61801

>  <SCORE.SYSTEM.norm>
-0.114122

>  <SCORE.heavy>
22

>  <SCORE.norm>
-1.4615

$$$$
F3168-1684
  rDOCK(R)          3D
libRbt.so/2013.1/901 2013/11/27
 24 26  0  0  0  0  0  0  0  0999 V2000
  -23.5294   21.8169   -8.8577 F   0  0  0  0  0  0
  -24.3339   22.8950   -8.6056 C   0  0  0  0  0  0
  -25.0378   22.5608   -7.4865 F   0  0  0  0  0  0
  -23.4965   23.9006   -8.2324 F   0  0  0  0  0  0
  -25.2163   23.2672   -9.7690 C   0  0  0  0  0  0
  -24.8634   24.2755  -10.6955 C   0  0  0  0  0  0
  -23.6378   24.9712  -10.5777 N   0  0  0  0  0  0
  -22.3586   24.5238  -10.8699 C   0  0  0  0  0  0
  -21.3039   25.1957  -10.5049 N   0  0  0  0  0  0
  -20.0340   24.7453  -10.7372 C   0  0  0  0  0  0
  -18.6589   25.6005  -10.2977 S   0  0  0  0  0  0
  -19.8517   23.5374  -11.3534 N   0  3  0  0  0  0
  -18.8959   23.2400  -11.4970 H   0  0  0  0  0  0
  -20.9170   22.7588  -11.7906 C   0  0  0  0  0  0
  -22.2171   23.2138  -11.5840 C   0  0  0  0  0  0
  -23.2943   22.4622  -12.0678 C   0  0  0  0  0  0
  -23.0568   21.2527  -12.7282 C   0  0  0  0  0  0
  -21.7511   20.7964  -12.9121 C   0  0  0  0  0  0
  -20.6755   21.5512  -12.4455 C   0  0  0  0  0  0
  -25.7838   24.5794  -11.7128 C   0  0  0  0  0  0
  -27.0038   23.9075  -11.8282 C   0  0  0  0  0  0
  -27.3409   22.9170  -10.9173 C   0  0  0  0  0  0
  -26.4558   22.6020   -9.8909 C   0  0  0  0  0  0
  -23.7339   25.9299  -10.2631 H   0  0  0  0  0  0
  1  2  1  0  0  0
  2  3  1  0  0  0
  2  4  1  0  0  0
  2  5  1  0  0  0
  5  6  2  0  0  0
  5 23  1  0  0  0
  6  7  1  0  0  0
  6 20  1  0  0  0
  7  8  1  0  0  0
  7 24  1  0  0  0
  8  9  1  0  0  0
  8 15  2  0  0  0
  9 10  1  0  0  0
 10 11  2  0  0  0
 10 12  1  0  0  0
 12 13  1  0  0  0
 12 14  2  0  0  0
 14 15  1  0  0  0
 14 19  1  0  0  0
 15 16  1  0  0  0
 16 17  2  0  0  0
 17 18  1  0  0  0
 18 19  2  0  0  0
 20 21  2  0  0  0
 21 22  1  0  0  0
 22 23  2  0  0  0
M  END
>  <CHROM.0>
-63.51491140,-73.10374360,-167.60829714,63.95264620,-30.35514194,-179.55927755
-156.56024822,-160.54814971

>  <CHROM.1>
-96.05386897,74.34553254,-168.42724611,-22.97480330,23.44743822,-10.55983263
-3.12233604,-0.25006678,-2.17701534

>  <Name>
F3168-1684

>  <RI>
2.06872e+07

>  <Rbt.Current_Directory>
/home/adria/Escritorio/rDock_CMTR_LC/2pxcA_model/inputs_sah

>  <Rbt.Executable>
rbdock ($Id: //depot/dev/client3/rdock/2013.1/src/exe/rbdock.cxx#4 $)

>  <Rbt.Library>
libRbt.so (2013.1, Build901 2013/11/27)

>  <Rbt.Parameter_File>
/home/adria/Escritorio/rDock_2013.1_src/data/scripts/dock.prm

>  <Rbt.Receptor>
sah_rdock.prm

>  <SCORE>
-27.5302

>  <SCORE.INTER>
-15.4479

>  <SCORE.INTER.CONST>
1

>  <SCORE.INTER.POLAR>
-1.94834

>  <SCORE.INTER.REPUL>
0.0494793

>  <SCORE.INTER.ROT>
3

>  <SCORE.INTER.VDW>
-17.4709

>  <SCORE.INTER.norm>
-0.702177

>  <SCORE.INTRA>
-4.37567

>  <SCORE.INTRA.DIHEDRAL>
8.87188

>  <SCORE.INTRA.DIHEDRAL.0>
3.98698

>  <SCORE.INTRA.POLAR>
0

>  <SCORE.INTRA.POLAR.0>
0

>  <SCORE.INTRA.REPUL>
0

>  <SCORE.INTRA.REPUL.0>
0

>  <SCORE.INTRA.VDW>
-8.81161

>  <SCORE.INTRA.VDW.0>
6.44422

>  <SCORE.INTRA.norm>
-0.198894

>  <SCORE.RESTR>
0.00363998

>  <SCORE.RESTR.CAVITY>
0.00363998

>  <SCORE.RESTR.norm>
0.000165454

>  <SCORE.SYSTEM>
-7.71025

>  <SCORE.SYSTEM.CONST>
0

>  <SCORE.SYSTEM.DIHEDRAL>
6.57783

>  <SCORE.SYSTEM.POLAR>
-4.05075

>  <SCORE.SYSTEM.REPUL>
0.0387203

>  <SCORE.SYSTEM.VDW>
2.57979

>  <SCORE.SYSTEM.norm>
-0.350466

>  <SCORE.heavy>
22

>  <SCORE.norm>
-1.25137

$$$$
F3168-1684
  rDOCK(R)          3D
libRbt.so/2013.1/901 2013/11/27
 24 26  0  0  0  0  0  0  0  0999 V2000
  -20.4063   17.0635  -16.3094 F   0  0  0  0  0  0
  -21.1328   18.2217  -16.2456 C   0  0  0  0  0  0
  -21.7170   18.3443  -17.4716 F   0  0  0  0  0  0
  -22.1469   17.9730  -15.3729 F   0  0  0  0  0  0
  -20.3090   19.4235  -15.8612 C   0  0  0  0  0  0
  -19.0392   19.6839  -16.4264 C   0  0  0  0  0  0
  -18.4923   18.8243  -17.4071 N   0  0  0  0  0  0
  -17.1587   18.5946  -17.7082 C   0  0  0  0  0  0
  -16.2494   19.5044  -17.5027 N   0  0  0  0  0  0
  -14.9225   19.2790  -17.7436 C   0  0  0  0  0  0
  -13.7337   20.4397  -17.5086 S   0  0  0  0  0  0
  -14.5207   18.0516  -18.1951 N   0  3  0  0  0  0
  -13.5294   17.9268  -18.3513 H   0  0  0  0  0  0
  -15.4213   17.0254  -18.4566 C   0  0  0  0  0  0
  -16.7794   17.2458  -18.2399 C   0  0  0  0  0  0
  -17.6983   16.2367  -18.5506 C   0  0  0  0  0  0
  -17.2435   15.0118  -19.0487 C   0  0  0  0  0  0
  -15.8790   14.7946  -19.2431 C   0  0  0  0  0  0
  -14.9626   15.8040  -18.9498 C   0  0  0  0  0  0
  -18.3326   20.8043  -15.9578 C   0  0  0  0  0  0
  -18.8586   21.6510  -14.9782 C   0  0  0  0  0  0
  -20.1067   21.3906  -14.4314 C   0  0  0  0  0  0
  -20.8256   20.2813  -14.8657 C   0  0  0  0  0  0
  -19.1835   18.2959  -17.9274 H   0  0  0  0  0  0
  1  2  1  0  0  0
  2  3  1  0  0  0
  2  4  1  0  0  0
  2  5  1  0  0  0
  5  6  2  0  0  0
  5 23  1  0  0  0
  6  7  1  0  0  0
  6 20  1  0  0  0
  7  8  1  0  0  0
  7 24  1  0  0  0
  8  9  1  0  0  0
  8 15  2  0  0  0
  9 10  1  0  0  0
 10 11  2  0  0  0
 10 12  1  0  0  0
 12 13  1  0  0  0
 12 14  2  0  0  0
 14 15  1  0  0  0
 14 19  1  0  0  0
 15 16  1  0  0  0
 16 17  2  0  0  0
 17 18  1  0  0  0
 18 19  2  0  0  0
 20 21  2  0  0  0
 21 22  1  0  0  0
 22 23  2  0  0  0
M  END
>  <CHROM.0>
-62.08831603,-75.77359537,-47.21572385,64.99953077,-31.87358323,-60.54115306
84.57807438,-163.66042068

>  <CHROM.1>
44.59137833,-153.45018959,-27.99397844,-17.91469800,18.52111849,-17.10437744
2.76396793,0.27716797,0.46504415

>  <Name>
F3168-1684

>  <RI>
2.06872e+07

>  <Rbt.Current_Directory>
/home/adria/Escritorio/rDock_CMTR_LC/2pxcA_model/inputs_sah

>  <Rbt.Executable>
rbdock ($Id: //depot/dev/client3/rdock/2013.1/src/exe/rbdock.cxx#4 $)

>  <Rbt.Library>
libRbt.so (2013.1, Build901 2013/11/27)

>  <Rbt.Parameter_File>
/home/adria/Escritorio/rDock_2013.1_src/data/scripts/dock.prm

>  <Rbt.Receptor>
sah_rdock.prm

>  <SCORE>
-33.613

>  <SCORE.INTER>
-18.8721

>  <SCORE.INTER.CONST>
1

>  <SCORE.INTER.POLAR>
-1.7344

>  <SCORE.INTER.REPUL>
0.177166

>  <SCORE.INTER.ROT>
3

>  <SCORE.INTER.VDW>
-22.261

>  <SCORE.INTER.norm>
-0.857825

>  <SCORE.INTRA>
-7.21078

>  <SCORE.INTRA.DIHEDRAL>
1.77515

>  <SCORE.INTRA.DIHEDRAL.0>
3.98698

>  <SCORE.INTRA.POLAR>
0

>  <SCORE.INTRA.POLAR.0>
0

>  <SCORE.INTRA.REPUL>
0

>  <SCORE.INTRA.REPUL.0>
0

>  <SCORE.INTRA.VDW>
-8.09835

>  <SCORE.INTRA.VDW.0>
6.44422

>  <SCORE.INTRA.norm>
-0.327763

>  <SCORE.RESTR>
0

>  <SCORE.RESTR.CAVITY>
0

>  <SCORE.RESTR.norm>
0

>  <SCORE.SYSTEM>
-7.53007

>  <SCORE.SYSTEM.CONST>
0

>  <SCORE.SYSTEM.DIHEDRAL>
6.61601

>  <SCORE.SYSTEM.POLAR>
-4.04019

>  <SCORE.SYSTEM.REPUL>
0.0431079

>  <SCORE.SYSTEM.VDW>
2.68303

>  <SCORE.SYSTEM.norm>
-0.342276

>  <SCORE.heavy>
22

>  <SCORE.norm>
-1.52786

$$$$
F3168-1684
  rDOCK(R)          3D
libRbt.so/2013.1/901 2013/11/27
 24 26  0  0  0  0  0  0  0  0999 V2000
  -20.3391   17.5164  -13.4381 F   0  0  0  0  0  0
  -20.8824   18.6399  -12.8761 C   0  0  0  0  0  0
  -22.2319   18.4704  -12.9733 F   0  0  0  0  0  0
  -20.5923   18.5652  -11.5487 F   0  0  0  0  0  0
  -20.4006   19.9186  -13.5112 C   0  0  0  0  0  0
  -20.8117   21.1926  -13.0557 C   0  0  0  0  0  0
  -21.6889   21.3201  -11.9539 N   0  0  0  0  0  0
  -22.2574   22.4711  -11.4305 C   0  0  0  0  0  0
  -22.0674   23.6349  -11.9840 N   0  0  0  0  0  0
  -22.6614   24.7733  -11.5141 C   0  0  0  0  0  0
  -22.4168   26.2876  -12.1942 S   0  0  0  0  0  0
  -23.5048   24.6967  -10.4395 N   0  3  0  0  0  0
  -23.9286   25.5617  -10.1316 H   0  0  0  0  0  0
  -23.7556   23.5010   -9.7764 C   0  0  0  0  0  0
  -23.1396   22.3357  -10.2266 C   0  0  0  0  0  0
  -23.3444   21.1371   -9.5332 C   0  0  0  0  0  0
  -24.1835   21.1159   -8.4148 C   0  0  0  0  0  0
  -24.8114   22.2852   -7.9843 C   0  0  0  0  0  0
  -24.5963   23.4839   -8.6636 C   0  0  0  0  0  0
  -20.3435   22.3186  -13.7537 C   0  0  0  0  0  0
  -19.4883   22.2018  -14.8529 C   0  0  0  0  0  0
  -19.0866   20.9483  -15.2912 C   0  0  0  0  0  0
  -19.5436   19.8134  -14.6285 C   0  0  0  0  0  0
  -21.9439   20.4388  -11.5228 H   0  0  0  0  0  0
  1  2  1  0  0  0
  2  3  1  0  0  0
  2  4  1  0  0  0
  2  5  1  0  0  0
  5  6  2  0  0  0
  5 23  1  0  0  0
  6  7  1  0  0  0
  6 20  1  0  0  0
  7  8  1  0  0  0
  7 24  1  0  0  0
  8  9  1  0  0  0
  8 15  2  0  0  0
  9 10  1  0  0  0
 10 11  2  0  0  0
 10 12  1  0  0  0
 12 13  1  0  0  0
 12 14  2  0  0  0
 14 15  1  0  0  0
 14 19  1  0  0  0
 15 16  1  0  0  0
 16 17  2  0  0  0
 17 18  1  0  0  0
 18 19  2  0  0  0
 20 21  2  0  0  0
 21 22  1  0  0  0
 22 23  2  0  0  0
M  END
>  <CHROM.0>
-61.14681492,-168.96533907,-163.94243178,62.83821812,-30.19890019,57.86580234
-157.18993241,-47.86823378

>  <CHROM.1>
-178.25510183,-175.50159022,3.22355089,-21.90689770,21.76352988,-11.88041791
0.66500295,-0.92095497,2.96952062

>  <Name>
F3168-1684

>  <RI>
2.06872e+07

>  <Rbt.Current_Directory>
/home/adria/Escritorio/rDock_CMTR_LC/2pxcA_model/inputs_sah

>  <Rbt.Executable>
rbdock ($Id: //depot/dev/client3/rdock/2013.1/src/exe/rbdock.cxx#4 $)

>  <Rbt.Library>
libRbt.so (2013.1, Build901 2013/11/27)

>  <Rbt.Parameter_File>
/home/adria/Escritorio/rDock_2013.1_src/data/scripts/dock.prm

>  <Rbt.Receptor>
sah_rdock.prm

>  <SCORE>
-34.0022

>  <SCORE.INTER>
-20.7032

>  <SCORE.INTER.CONST>
1

>  <SCORE.INTER.POLAR>
-3.32506

>  <SCORE.INTER.REPUL>
0.0112448

>  <SCORE.INTER.ROT>
3

>  <SCORE.INTER.VDW>
-17.8542

>  <SCORE.INTER.norm>
-0.941053

>  <SCORE.INTRA>
-9.04548

>  <SCORE.INTRA.DIHEDRAL>
-3.17514

>  <SCORE.INTRA.DIHEDRAL.0>
3.98698

>  <SCORE.INTRA.POLAR>
0

>  <SCORE.INTRA.POLAR.0>
0

>  <SCORE.INTRA.REPUL>
0

>  <SCORE.INTRA.REPUL.0>
0

>  <SCORE.INTRA.VDW>
-7.45791

>  <SCORE.INTRA.VDW.0>
6.44422

>  <SCORE.INTRA.norm>
-0.411158

>  <SCORE.RESTR>
0

>  <SCORE.RESTR.CAVITY>
0

>  <SCORE.RESTR.norm>
0

>  <SCORE.SYSTEM>
-4.25352

>  <SCORE.SYSTEM.CONST>
0

>  <SCORE.SYSTEM.DIHEDRAL>
8.57974

>  <SCORE.SYSTEM.POLAR>
-3.35505

>  <SCORE.SYSTEM.REPUL>
0.0172068

>  <SCORE.SYSTEM.VDW>
2.77774

>  <SCORE.SYSTEM.norm>
-0.193342

>  <SCORE.heavy>
22

>  <SCORE.norm>
-1.54555

$$$$
F3168-1684
  rDOCK(R)          3D
libRbt.so/2013.1/901 2013/11/27
 24 26  0  0  0  0  0  0  0  0999 V2000
  -18.3614   14.2186  -13.7766 F   0  0  0  0  0  0
  -18.2713   14.6045  -15.0867 C   0  0  0  0  0  0
  -16.9396   14.7906  -15.3129 F   0  0  0  0  0  0
  -18.6243   13.5123  -15.8177 F   0  0  0  0  0  0
  -19.1007   15.8203  -15.4099 C   0  0  0  0  0  0
  -19.3412   16.2422  -16.7380 C   0  0  0  0  0  0
  -18.8224   15.5154  -17.8345 N   0  0  0  0  0  0
  -17.5063   15.4120  -18.2578 C   0  0  0  0  0  0
  -17.0595   14.3303  -18.8298 N   0  0  0  0  0  0
  -15.7802   14.2280  -19.3013 C   0  0  0  0  0  0
  -15.1727   12.8397  -20.0220 S   0  0  0  0  0  0
  -14.9371   15.3002  -19.1947 N   0  3  0  0  0  0
  -14.0033   15.1828  -19.5646 H   0  0  0  0  0  0
  -15.3218   16.4895  -18.5866 C   0  0  0  0  0  0
  -16.6139   16.6026  -18.0788 C   0  0  0  0  0  0
  -16.9932   17.7767  -17.4179 C   0  0  0  0  0  0
  -16.0830   18.8314  -17.2974 C   0  0  0  0  0  0
  -14.7975   18.7151  -17.8274 C   0  0  0  0  0  0
  -14.4118   17.5403  -18.4720 C   0  0  0  0  0  0
  -20.0841   17.4201  -16.9251 C   0  0  0  0  0  0
  -20.5882   18.1530  -15.8472 C   0  0  0  0  0  0
  -20.3509   17.7303  -14.5474 C   0  0  0  0  0  0
  -19.6077   16.5745  -14.3292 C   0  0  0  0  0  0
  -19.5181   14.9858  -18.3474 H   0  0  0  0  0  0
  1  2  1  0  0  0
  2  3  1  0  0  0
  2  4  1  0  0  0
  2  5  1  0  0  0
  5  6  2  0  0  0
  5 23  1  0  0  0
  6  7  1  0  0  0
  6 20  1  0  0  0
  7  8  1  0  0  0
  7 24  1  0  0  0
  8  9  1  0  0  0
  8 15  2  0  0  0
  9 10  1  0  0  0
 10 11  2  0  0  0
 10 12  1  0  0  0
 12 13  1  0  0  0
 12 14  2  0  0  0
 14 15  1  0  0  0
 14 19  1  0  0  0
 15 16  1  0  0  0
 16 17  2  0  0  0
 17 18  1  0  0  0
 18 19  2  0  0  0
 20 21  2  0  0  0
 21 22  1  0  0  0
 22 23  2  0  0  0
M  END
>  <CHROM.0>
-60.38870286,-73.54741539,72.87835985,-60.91781922,-30.07772806,-57.88743367
83.59217003,-159.29953504

>  <CHROM.1>
-168.44354263,-71.19442407,148.35771102,-17.37120333,15.73065697,-17.12212332
2.85738236,0.77460076,0.03207780

>  <Name>
F3168-1684

>  <RI>
2.06872e+07

>  <Rbt.Current_Directory>
/home/adria/Escritorio/rDock_CMTR_LC/2pxcA_model/inputs_sah

>  <Rbt.Executable>
rbdock ($Id: //depot/dev/client3/rdock/2013.1/src/exe/rbdock.cxx#4 $)

>  <Rbt.Library>
libRbt.so (2013.1, Build901 2013/11/27)

>  <Rbt.Parameter_File>
/home/adria/Escritorio/rDock_2013.1_src/data/scripts/dock.prm

>  <Rbt.Receptor>
sah_rdock.prm

>  <SCORE>
-23.5471

>  <SCORE.INTER>
-12.5842

>  <SCORE.INTER.CONST>
1

>  <SCORE.INTER.POLAR>
-0.495498

>  <SCORE.INTER.REPUL>
0

>  <SCORE.INTER.ROT>
3

>  <SCORE.INTER.VDW>
-19.2995

>  <SCORE.INTER.norm>
-0.572011

>  <SCORE.INTRA>
-3.38093

>  <SCORE.INTRA.DIHEDRAL>
11.9654

>  <SCORE.INTRA.DIHEDRAL.0>
3.98698

>  <SCORE.INTRA.POLAR>
0

>  <SCORE.INTRA.POLAR.0>
0

>  <SCORE.INTRA.REPUL>
0

>  <SCORE.INTRA.REPUL.0>
0

>  <SCORE.INTRA.VDW>
-9.36361

>  <SCORE.INTRA.VDW.0>
6.44422

>  <SCORE.INTRA.norm>
-0.153679

>  <SCORE.RESTR>
0

>  <SCORE.RESTR.CAVITY>
0

>  <SCORE.RESTR.norm>
0

>  <SCORE.SYSTEM>
-7.58195

>  <SCORE.SYSTEM.CONST>
0

>  <SCORE.SYSTEM.DIHEDRAL>
6.67094

>  <SCORE.SYSTEM.POLAR>
-4.09585

>  <SCORE.SYSTEM.REPUL>
0.0394984

>  <SCORE.SYSTEM.VDW>
2.81097

>  <SCORE.SYSTEM.norm>
-0.344634

>  <SCORE.heavy>
22

>  <SCORE.norm>
-1.07032

$$$$
F3168-1684
  rDOCK(R)          3D
libRbt.so/2013.1/901 2013/11/27
 24 26  0  0  0  0  0  0  0  0999 V2000
  -19.7346   17.4629  -13.9189 F   0  0  0  0  0  0
  -20.4145   18.5242  -13.3856 C   0  0  0  0  0  0
  -21.7328   18.2426  -13.5908 F   0  0  0  0  0  0
  -20.2221   18.4470  -12.0407 F   0  0  0  0  0  0
  -19.9975   19.8521  -13.9630 C   0  0  0  0  0  0
  -20.5020   21.0810  -13.4784 C   0  0  0  0  0  0
  -21.4167   21.1144  -12.4004 N   0  0  0  0  0  0
  -21.9502   22.2186  -11.7537 C   0  0  0  0  0  0
  -21.8186   23.4200  -12.2398 N   0  0  0  0  0  0
  -22.3820   24.5147  -11.6451 C   0  0  0  0  0  0
  -22.2098   26.0752  -12.2375 S   0  0  0  0  0  0
  -23.1314   24.3526  -10.5120 N   0  3  0  0  0  0
  -23.5362   25.1882  -10.1113 H   0  0  0  0  0  0
  -23.3142   23.1110   -9.9141 C   0  0  0  0  0  0
  -22.7270   21.9885  -10.4929 C   0  0  0  0  0  0
  -22.8613   20.7427   -9.8689 C   0  0  0  0  0  0
  -23.6034   20.6329   -8.6888 C   0  0  0  0  0  0
  -24.2042   21.7607   -8.1284 C   0  0  0  0  0  0
  -24.0584   23.0057   -8.7391 C   0  0  0  0  0  0
  -20.0870   22.2580  -14.1241 C   0  0  0  0  0  0
  -19.1951   22.2337  -15.1998 C   0  0  0  0  0  0
  -18.7018   21.0241  -15.6667 C   0  0  0  0  0  0
  -19.1040   19.8402  -15.0563 C   0  0  0  0  0  0
  -21.7311   20.2005  -12.0949 H   0  0  0  0  0  0
  1  2  1  0  0  0
  2  3  1  0  0  0
  2  4  1  0  0  0
  2  5  1  0  0  0
  5  6  2  0  0  0
  5 23  1  0  0  0
  6  7  1  0  0  0
  6 20  1  0  0  0
  7  8  1  0  0  0
  7 24  1  0  0  0
  8  9  1  0  0  0
  8 15  2  0  0  0
  9 10  1  0  0  0
 10 11  2  0  0  0
 10 12  1  0  0  0
 12 13  1  0  0  0
 12 14  2  0  0  0
 14 15  1  0  0  0
 14 19  1  0  0  0
 15 16  1  0  0  0
 16 17  2  0  0  0
 17 18  1  0  0  0
 18 19  2  0  0  0
 20 21  2  0  0  0
 21 22  1  0  0  0
 22 23  2  0  0  0
M  END
>  <CHROM.0>
-158.45396328,-167.41121983,108.28749150,-60.94686124,-30.36040329,-59.87525474
-156.07951324,-163.54029486

>  <CHROM.1>
-175.06037577,176.03130182,11.77659122,-21.51509176,21.55262407,-12.19329551
0.59469373,-0.95164913,2.96124583

>  <Name>
F3168-1684

>  <RI>
2.06872e+07

>  <Rbt.Current_Directory>
/home/adria/Escritorio/rDock_CMTR_LC/2pxcA_model/inputs_sah

>  <Rbt.Executable>
rbdock ($Id: //depot/dev/client3/rdock/2013.1/src/exe/rbdock.cxx#4 $)

>  <Rbt.Library>
libRbt.so (2013.1, Build901 2013/11/27)

>  <Rbt.Parameter_File>
/home/adria/Escritorio/rDock_2013.1_src/data/scripts/dock.prm

>  <Rbt.Receptor>
sah_rdock.prm

>  <SCORE>
-29.584

>  <SCORE.INTER>
-15.9159

>  <SCORE.INTER.CONST>
1

>  <SCORE.INTER.POLAR>
-2.13169

>  <SCORE.INTER.REPUL>
0.0444773

>  <SCORE.INTER.ROT>
3

>  <SCORE.INTER.VDW>
-17.2905

>  <SCORE.INTER.norm>
-0.723448

>  <SCORE.INTRA>
-8.83714

>  <SCORE.INTRA.DIHEDRAL>
-2.57515

>  <SCORE.INTRA.DIHEDRAL.0>
3.98698

>  <SCORE.INTRA.POLAR>
0

>  <SCORE.INTRA.POLAR.0>
0

>  <SCORE.INTRA.REPUL>
0

>  <SCORE.INTRA.REPUL.0>
0

>  <SCORE.INTRA.VDW>
-7.54957

>  <SCORE.INTRA.VDW.0>
6.44422

>  <SCORE.INTRA.norm>
-0.401688

>  <SCORE.RESTR>
0

>  <SCORE.RESTR.CAVITY>
0

>  <SCORE.RESTR.norm>
0

>  <SCORE.SYSTEM>
-4.83101

>  <SCORE.SYSTEM.CONST>
0

>  <SCORE.SYSTEM.DIHEDRAL>
11.2427

>  <SCORE.SYSTEM.POLAR>
-4.32484

>  <SCORE.SYSTEM.VDW>
4.25211

>  <SCORE.SYSTEM.norm>
-0.219591

>  <SCORE.heavy>
22

>  <SCORE.norm>
-1.34473

$$$$
F3168-1684
  rDOCK(R)          3D
libRbt.so/2013.1/901 2013/11/27
 24 26  0  0  0  0  0  0  0  0999 V2000
  -21.2283   16.5673  -13.3422 F   0  0  0  0  0  0
  -20.2324   16.7536  -14.2624 C   0  0  0  0  0  0
  -19.4269   15.6599  -14.1424 F   0  0  0  0  0  0
  -20.8304   16.6440  -15.4799 F   0  0  0  0  0  0
  -19.4922   18.0543  -14.0869 C   0  0  0  0  0  0
  -18.4025   18.4229  -14.9093 C   0  0  0  0  0  0
  -17.9708   17.5813  -15.9606 N   0  0  0  0  0  0
  -16.8325   17.6921  -16.7443 C   0  0  0  0  0  0
  -16.0660   18.7436  -16.6841 N   0  0  0  0  0  0
  -14.9117   18.8490  -17.4095 C   0  0  0  0  0  0
  -13.9179   20.2003  -17.3675 S   0  0  0  0  0  0
  -14.5260   17.8109  -18.2129 N   0  3  0  0  0  0
  -13.6615   17.9286  -18.7241 H   0  0  0  0  0  0
  -15.2878   16.6564  -18.3512 C   0  0  0  0  0  0
  -16.4789   16.5425  -17.6383 C   0  0  0  0  0  0
  -17.2787   15.4069  -17.8117 C   0  0  0  0  0  0
  -16.8627   14.3892  -18.6757 C   0  0  0  0  0  0
  -15.6577   14.5046  -19.3697 C   0  0  0  0  0  0
  -14.8669   15.6421  -19.2112 C   0  0  0  0  0  0
  -17.7497   19.6342  -14.6251 C   0  0  0  0  0  0
  -18.1598   20.4651  -13.5789 C   0  0  0  0  0  0
  -19.2322   20.0980  -12.7790 C   0  0  0  0  0  0
  -19.8913   18.8980  -13.0274 C   0  0  0  0  0  0
  -18.5734   16.7835  -16.1272 H   0  0  0  0  0  0
  1  2  1  0  0  0
  2  3  1  0  0  0
  2  4  1  0  0  0
  2  5  1  0  0  0
  5  6  2  0  0  0
  5 23  1  0  0  0
  6  7  1  0  0  0
  6 20  1  0  0  0
  7  8  1  0  0  0
  7 24  1  0  0  0
  8  9  1  0  0  0
  8 15  2  0  0  0
  9 10  1  0  0  0
 10 11  2  0  0  0
 10 12  1  0  0  0
 12 13  1  0  0  0
 12 14  2  0  0  0
 14 15  1  0  0  0
 14 19  1  0  0  0
 15 16  1  0  0  0
 16 17  2  0  0  0
 17 18  1  0  0  0
 18 19  2  0  0  0
 20 21  2  0  0  0
 21 22  1  0  0  0
 22 23  2  0  0  0
M  END
>  <CHROM.0>
-65.80257239,-72.24090252,-8.32015464,64.18129666,-31.11363162,57.91104972
-37.89584663,-161.27138090

>  <CHROM.1>
178.16154292,-170.78768835,-8.34427695,-17.44914456,17.60390360,-16.06834578
2.72360092,0.61368617,0.56720847

>  <Name>
F3168-1684

>  <RI>
2.06872e+07

>  <Rbt.Current_Directory>
/home/adria/Escritorio/rDock_CMTR_LC/2pxcA_model/inputs_sah

>  <Rbt.Executable>
rbdock ($Id: //depot/dev/client3/rdock/2013.1/src/exe/rbdock.cxx#4 $)

>  <Rbt.Library>
libRbt.so (2013.1, Build901 2013/11/27)

>  <Rbt.Parameter_File>
/home/adria/Escritorio/rDock_2013.1_src/data/scripts/dock.prm

>  <Rbt.Receptor>
sah_rdock.prm

>  <SCORE>
-31.0709

>  <SCORE.INTER>
-14.7687

>  <SCORE.INTER.CONST>
1

>  <SCORE.INTER.POLAR>
-0.374542

>  <SCORE.INTER.REPUL>
0.00671583

>  <SCORE.INTER.ROT>
3

>  <SCORE.INTER.VDW>
-21.9288

>  <SCORE.INTER.norm>
-0.671305

>  <SCORE.INTRA>
-8.91569

>  <SCORE.INTRA.DIHEDRAL>
-2.77308

>  <SCORE.INTRA.DIHEDRAL.0>
3.98698

>  <SCORE.INTRA.POLAR>
0

>  <SCORE.INTRA.POLAR.0>
0

>  <SCORE.INTRA.REPUL>
0

>  <SCORE.INTRA.REPUL.0>
0

>  <SCORE.INTRA.VDW>
-7.52915

>  <SCORE.INTRA.VDW.0>
6.44422

>  <SCORE.INTRA.norm>
-0.405259

>  <SCORE.RESTR>
0

>  <SCORE.RESTR.CAVITY>
0

>  <SCORE.RESTR.norm>
0

>  <SCORE.SYSTEM>
-7.38646

>  <SCORE.SYSTEM.CONST>
0

>  <SCORE.SYSTEM.DIHEDRAL>
9.36986

>  <SCORE.SYSTEM.POLAR>
-4.5908

>  <SCORE.SYSTEM.REPUL>
0.0371518

>  <SCORE.SYSTEM.VDW>
3.35156

>  <SCORE.SYSTEM.norm>
-0.335748

>  <SCORE.heavy>
22

>  <SCORE.norm>
-1.41231

$$$$
F3168-1684
  rDOCK(R)          3D
libRbt.so/2013.1/901 2013/11/27
 24 26  0  0  0  0  0  0  0  0999 V2000
  -20.3698   17.5144  -13.4153 F   0  0  0  0  0  0
  -20.9206   18.6414  -12.8677 C   0  0  0  0  0  0
  -22.2683   18.4774  -12.9944 F   0  0  0  0  0  0
  -20.6603   18.5681  -11.5340 F   0  0  0  0  0  0
  -20.4193   19.9167  -13.4945 C   0  0  0  0  0  0
  -20.8352   21.1933  -13.0509 C   0  0  0  0  0  0
  -21.7363   21.3268  -11.9692 N   0  0  0  0  0  0
  -22.3048   22.4822  -11.4556 C   0  0  0  0  0  0
  -22.0985   23.6441  -12.0072 N   0  0  0  0  0  0
  -22.6918   24.7870  -11.5475 C   0  0  0  0  0  0
  -22.4265   26.2990  -12.2251 S   0  0  0  0  0  0
  -23.5520   24.7172  -10.4859 N   0  3  0  0  0  0
  -23.9745   25.5853  -10.1852 H   0  0  0  0  0  0
  -23.8210   23.5239   -9.8256 C   0  0  0  0  0  0
  -23.2062   22.3540  -10.2653 C   0  0  0  0  0  0
  -23.4297   21.1575   -9.5740 C   0  0  0  0  0  0
  -24.2859   21.1431   -8.4685 C   0  0  0  0  0  0
  -24.9124   22.3170   -8.0488 C   0  0  0  0  0  0
  -24.6787   23.5136   -8.7257 C   0  0  0  0  0  0
  -20.3467   22.3159  -13.7406 C   0  0  0  0  0  0
  -19.4677   22.1932  -14.8201 C   0  0  0  0  0  0
  -19.0616   20.9371  -15.2467 C   0  0  0  0  0  0
  -19.5380   19.8055  -14.5921 C   0  0  0  0  0  0
  -22.0102   20.4470  -11.5468 H   0  0  0  0  0  0
  1  2  1  0  0  0
  2  3  1  0  0  0
  2  4  1  0  0  0
  2  5  1  0  0  0
  5  6  2  0  0  0
  5 23  1  0  0  0
  6  7  1  0  0  0
  6 20  1  0  0  0
  7  8  1  0  0  0
  7 24  1  0  0  0
  8  9  1  0  0  0
  8 15  2  0  0  0
  9 10  1  0  0  0
 10 11  2  0  0  0
 10 12  1  0  0  0
 12 13  1  0  0  0
 12 14  2  0  0  0
 14 15  1  0  0  0
 14 19  1  0  0  0
 15 16  1  0  0  0
 16 17  2  0  0  0
 17 18  1  0  0  0
 18 19  2  0  0  0
 20 21  2  0  0  0
 21 22  1  0  0  0
 22 23  2  0  0  0
M  END
>  <CHROM.0>
-62.13654362,-73.24695142,-165.70870889,61.73844415,-31.26403210,65.04058347
83.16966657,-160.14914803

>  <CHROM.1>
-178.27080863,-175.95854545,3.76327120,-21.94562486,21.77247105,-11.89465282
0.67874754,-0.90401055,2.97871023

>  <Name>
F3168-1684

>  <RI>
2.06872e+07

>  <Rbt.Current_Directory>
/home/adria/Escritorio/rDock_CMTR_LC/2pxcA_model/inputs_sah

>  <Rbt.Executable>
rbdock ($Id: //depot/dev/client3/rdock/2013.1/src/exe/rbdock.cxx#4 $)

>  <Rbt.Library>
libRbt.so (2013.1, Build901 2013/11/27)

>  <Rbt.Parameter_File>
/home/adria/Escritorio/rDock_2013.1_src/data/scripts/dock.prm

>  <Rbt.Receptor>
sah_rdock.prm

>  <SCORE>
-37.0433

>  <SCORE.INTER>
-20.6399

>  <SCORE.INTER.CONST>
1

>  <SCORE.INTER.POLAR>
-3.35772

>  <SCORE.INTER.REPUL>
0.00923691

>  <SCORE.INTER.ROT>
3

>  <SCORE.INTER.VDW>
-17.6698

>  <SCORE.INTER.norm>
-0.938176

>  <SCORE.INTRA>
-9.04601

>  <SCORE.INTRA.DIHEDRAL>
-3.16924

>  <SCORE.INTRA.DIHEDRAL.0>
3.98698

>  <SCORE.INTRA.POLAR>
0

>  <SCORE.INTRA.POLAR.0>
0

>  <SCORE.INTRA.REPUL>
0

>  <SCORE.INTRA.REPUL.0>
0

>  <SCORE.INTRA.VDW>
-7.46139

>  <SCORE.INTRA.VDW.0>
6.44422

>  <SCORE.INTRA.norm>
-0.411182

>  <SCORE.RESTR>
0

>  <SCORE.RESTR.CAVITY>
0

>  <SCORE.RESTR.norm>
0

>  <SCORE.SYSTEM>
-7.35746

>  <SCORE.SYSTEM.CONST>
0

>  <SCORE.SYSTEM.DIHEDRAL>
6.49809

>  <SCORE.SYSTEM.POLAR>
-3.96727

>  <SCORE.SYSTEM.REPUL>
0.0389735

>  <SCORE.SYSTEM.VDW>
2.68735

>  <SCORE.SYSTEM.norm>
-0.33443

>  <SCORE.heavy>
22

>  <SCORE.norm>
-1.68379

$$$$
F3168-1684
  rDOCK(R)          3D
libRbt.so/2013.1/901 2013/11/27
 24 26  0  0  0  0  0  0  0  0999 V2000
  -19.8463   22.7905  -11.3087 F   0  0  0  0  0  0
  -21.2054   22.7464  -11.4645 C   0  0  0  0  0  0
  -21.6961   23.6542  -10.5732 F   0  0  0  0  0  0
  -21.4520   23.2649  -12.6983 F   0  0  0  0  0  0
  -21.7835   21.3670  -11.2812 C   0  0  0  0  0  0
  -21.5157   20.3078  -12.1790 C   0  0  0  0  0  0
  -20.6631   20.4983  -13.2910 N   0  0  0  0  0  0
  -20.7522   19.9351  -14.5547 C   0  0  0  0  0  0
  -21.8809   19.4772  -15.0164 N   0  0  0  0  0  0
  -22.0006   18.9665  -16.2791 C   0  0  0  0  0  0
  -23.4364   18.3503  -16.8909 S   0  0  0  0  0  0
  -20.9091   18.9512  -17.1039 N   0  3  0  0  0  0
  -21.0456   18.5726  -18.0316 H   0  0  0  0  0  0
  -19.6612   19.4049  -16.6924 C   0  0  0  0  0  0
  -19.5157   19.9059  -15.4009 C   0  0  0  0  0  0
  -18.2519   20.3157  -14.9602 C   0  0  0  0  0  0
  -17.1566   20.2431  -15.8264 C   0  0  0  0  0  0
  -17.3176   19.7583  -17.1248 C   0  0  0  0  0  0
  -18.5723   19.3342  -17.5611 C   0  0  0  0  0  0
  -22.1488   19.0757  -11.9435 C   0  0  0  0  0  0
  -23.0047   18.8824  -10.8557 C   0  0  0  0  0  0
  -23.2592   19.9257   -9.9774 C   0  0  0  0  0  0
  -22.6571   21.1618  -10.1911 C   0  0  0  0  0  0
  -19.9112   21.1584  -13.1287 H   0  0  0  0  0  0
  1  2  1  0  0  0
  2  3  1  0  0  0
  2  4  1  0  0  0
  2  5  1  0  0  0
  5  6  2  0  0  0
  5 23  1  0  0  0
  6  7  1  0  0  0
  6 20  1  0  0  0
  7  8  1  0  0  0
  7 24  1  0  0  0
  8  9  1  0  0  0
  8 15  2  0  0  0
  9 10  1  0  0  0
 10 11  2  0  0  0
 10 12  1  0  0  0
 12 13  1  0  0  0
 12 14  2  0  0  0
 14 15  1  0  0  0
 14 19  1  0  0  0
 15 16  1  0  0  0
 16 17  2  0  0  0
 17 18  1  0  0  0
 18 19  2  0  0  0
 20 21  2  0  0  0
 21 22  1  0  0  0
 22 23  2  0  0  0
M  END
>  <CHROM.0>
-60.81074346,-72.29460620,73.35923600,66.75514022,-31.61239440,-179.42266508
-156.92302944,-165.91121732

>  <CHROM.1>
-66.89496285,-145.19401491,22.55750344,-21.00991179,20.40749576,-13.85859655
-1.86737988,-0.45781632,-2.12666775

>  <Name>
F3168-1684

>  <RI>
2.06872e+07

>  <Rbt.Current_Directory>
/home/adria/Escritorio/rDock_CMTR_LC/2pxcA_model/inputs_sah

>  <Rbt.Executable>
rbdock ($Id: //depot/dev/client3/rdock/2013.1/src/exe/rbdock.cxx#4 $)

>  <Rbt.Library>
libRbt.so (2013.1, Build901 2013/11/27)

>  <Rbt.Parameter_File>
/home/adria/Escritorio/rDock_2013.1_src/data/scripts/dock.prm

>  <Rbt.Receptor>
sah_rdock.prm

>  <SCORE>
-25.5335

>  <SCORE.INTER>
-10.5378

>  <SCORE.INTER.CONST>
1

>  <SCORE.INTER.POLAR>
-1.03712

>  <SCORE.INTER.REPUL>
0.0297375

>  <SCORE.INTER.ROT>
3

>  <SCORE.INTER.VDW>
-15.5603

>  <SCORE.INTER.norm>
-0.478993

>  <SCORE.INTRA>
-7.01277

>  <SCORE.INTRA.DIHEDRAL>
2.43215

>  <SCORE.INTRA.DIHEDRAL.0>
3.98698

>  <SCORE.INTRA.POLAR>
0

>  <SCORE.INTRA.POLAR.0>
0

>  <SCORE.INTRA.REPUL>
0

>  <SCORE.INTRA.REPUL.0>
0

>  <SCORE.INTRA.VDW>
-8.22885

>  <SCORE.INTRA.VDW.0>
6.44422

>  <SCORE.INTRA.norm>
-0.318762

>  <SCORE.RESTR>
0

>  <SCORE.RESTR.CAVITY>
0

>  <SCORE.RESTR.norm>
0

>  <SCORE.SYSTEM>
-7.9829

>  <SCORE.SYSTEM.CONST>
0

>  <SCORE.SYSTEM.DIHEDRAL>
6.11266

>  <SCORE.SYSTEM.POLAR>
-4.10055

>  <SCORE.SYSTEM.REPUL>
0.0372516

>  <SCORE.SYSTEM.VDW>
2.71637

>  <SCORE.SYSTEM.norm>
-0.362859

>  <SCORE.heavy>
22

>  <SCORE.norm>
-1.16061

$$$$
F3168-1684
  rDOCK(R)          3D
libRbt.so/2013.1/901 2013/11/27
 24 26  0  0  0  0  0  0  0  0999 V2000
  -20.3395   17.5509  -13.5030 F   0  0  0  0  0  0
  -20.9155   18.6688  -12.9627 C   0  0  0  0  0  0
  -22.2579   18.4915  -13.1237 F   0  0  0  0  0  0
  -20.6874   18.5903  -11.6235 F   0  0  0  0  0  0
  -20.4125   19.9530  -13.5697 C   0  0  0  0  0  0
  -20.8217   21.2232  -13.1021 C   0  0  0  0  0  0
  -21.7174   21.3411  -12.0141 N   0  0  0  0  0  0
  -22.2790   22.4894  -11.4776 C   0  0  0  0  0  0
  -22.0887   23.6573  -12.0224 N   0  0  0  0  0  0
  -22.6763   24.7935  -11.5394 C   0  0  0  0  0  0
  -22.4309   26.3127  -12.2083 S   0  0  0  0  0  0
  -23.5133   24.7105  -10.4604 N   0  3  0  0  0  0
  -23.9325   25.5741  -10.1427 H   0  0  0  0  0  0
  -23.7639   23.5100   -9.8058 C   0  0  0  0  0  0
  -23.1544   22.3466  -10.2696 C   0  0  0  0  0  0
  -23.3587   21.1429   -9.5850 C   0  0  0  0  0  0
  -24.1911   21.1148   -8.4618 C   0  0  0  0  0  0
  -24.8127   22.2824   -8.0177 C   0  0  0  0  0  0
  -24.5979   23.4861   -8.6881 C   0  0  0  0  0  0
  -20.3324   22.3559  -13.7744 C   0  0  0  0  0  0
  -19.4587   22.2488  -14.8599 C   0  0  0  0  0  0
  -19.0591   20.9989  -15.3101 C   0  0  0  0  0  0
  -19.5366   19.8578  -14.6730 C   0  0  0  0  0  0
  -21.9929   20.4551  -11.6060 H   0  0  0  0  0  0
  1  2  1  0  0  0
  2  3  1  0  0  0
  2  4  1  0  0  0
  2  5  1  0  0  0
  5  6  2  0  0  0
  5 23  1  0  0  0
  6  7  1  0  0  0
  6 20  1  0  0  0
  7  8  1  0  0  0
  7 24  1  0  0  0
  8  9  1  0  0  0
  8 15  2  0  0  0
  9 10  1  0  0  0
 10 11  2  0  0  0
 10 12  1  0  0  0
 12 13  1  0  0  0
 12 14  2  0  0  0
 14 15  1  0  0  0
 14 19  1  0  0  0
 15 16  1  0  0  0
 16 17  2  0  0  0
 17 18  1  0  0  0
 18 19  2  0  0  0
 20 21  2  0  0  0
 21 22  1  0  0  0
 22 23  2  0  0  0
M  END
>  <CHROM.0>
-58.31263059,63.68141921,-46.07797394,64.53404492,-30.50557655,-178.02257342
-155.77463955,-164.85324193

>  <CHROM.1>
-176.29387846,-175.98300074,4.91846411,-21.92044437,21.78649096,-11.92709950
0.67172666,-0.91851868,2.98541996

>  <Name>
F3168-1684

>  <RI>
2.06872e+07

>  <Rbt.Current_Directory>
/home/adria/Escritorio/rDock_CMTR_LC/2pxcA_model/inputs_sah

>  <Rbt.Executable>
rbdock ($Id: //depot/dev/client3/rdock/2013.1/src/exe/rbdock.cxx#4 $)

>  <Rbt.Library>
libRbt.so (2013.1, Build901 2013/11/27)

>  <Rbt.Parameter_File>
/home/adria/Escritorio/rDock_2013.1_src/data/scripts/dock.prm

>  <Rbt.Receptor>
sah_rdock.prm

>  <SCORE>
-36.8308

>  <SCORE.INTER>
-20.5232

>  <SCORE.INTER.CONST>
1

>  <SCORE.INTER.POLAR>
-3.37069

>  <SCORE.INTER.REPUL>
0.0107113

>  <SCORE.INTER.ROT>
3

>  <SCORE.INTER.VDW>
-17.5165

>  <SCORE.INTER.norm>
-0.932875

>  <SCORE.INTRA>
-8.99858

>  <SCORE.INTRA.DIHEDRAL>
-3.12609

>  <SCORE.INTRA.DIHEDRAL.0>
3.98698

>  <SCORE.INTRA.POLAR>
0

>  <SCORE.INTRA.POLAR.0>
0

>  <SCORE.INTRA.REPUL>
0

>  <SCORE.INTRA.REPUL.0>
0

>  <SCORE.INTRA.VDW>
-7.43553

>  <SCORE.INTRA.VDW.0>
6.44422

>  <SCORE.INTRA.norm>
-0.409026

>  <SCORE.RESTR>
0

>  <SCORE.RESTR.CAVITY>
0

>  <SCORE.RESTR.norm>
0

>  <SCORE.SYSTEM>
-7.30901

>  <SCORE.SYSTEM.CONST>
0

>  <SCORE.SYSTEM.DIHEDRAL>
5.74524

>  <SCORE.SYSTEM.POLAR>
-3.76029

>  <SCORE.SYSTEM.VDW>
2.60336

>  <SCORE.SYSTEM.norm>
-0.332228

>  <SCORE.heavy>
22

>  <SCORE.norm>
-1.67413

$$$$
F3168-1684
  rDOCK(R)          3D
libRbt.so/2013.1/901 2013/11/27
 24 26  0  0  0  0  0  0  0  0999 V2000
  -22.2887   18.0650  -14.8030 F   0  0  0  0  0  0
  -21.1263   17.9950  -15.5222 C   0  0  0  0  0  0
  -20.4700   16.9040  -15.0339 F   0  0  0  0  0  0
  -21.4967   17.6699  -16.7906 F   0  0  0  0  0  0
  -20.3053   19.2568  -15.4555 C   0  0  0  0  0  0
  -19.0529   19.3807  -16.1003 C   0  0  0  0  0  0
  -18.5223   18.3154  -16.8640 N   0  0  0  0  0  0
  -17.2410   18.1718  -17.3735 C   0  0  0  0  0  0
  -16.3506   19.1145  -17.2489 N   0  0  0  0  0  0
  -15.0671   18.9714  -17.6978 C   0  0  0  0  0  0
  -13.9070   20.1771  -17.5699 S   0  0  0  0  0  0
  -14.6862   17.7932  -18.2797 N   0  3  0  0  0  0
  -13.7256   17.7285  -18.5889 H   0  0  0  0  0  0
  -15.5714   16.7381  -18.4681 C   0  0  0  0  0  0
  -16.8893   16.8758  -18.0388 C   0  0  0  0  0  0
  -17.8008   15.8394  -18.2720 C   0  0  0  0  0  0
  -17.3747   14.6690  -18.9076 C   0  0  0  0  0  0
  -16.0473   14.5336  -19.3156 C   0  0  0  0  0  0
  -15.1410   15.5710  -19.0992 C   0  0  0  0  0  0
  -18.3461   20.5830  -15.9293 C   0  0  0  0  0  0
  -18.8557   21.6356  -15.1642 C   0  0  0  0  0  0
  -20.0870   21.5074  -14.5379 C   0  0  0  0  0  0
  -20.8053   20.3240  -14.6779 C   0  0  0  0  0  0
  -19.1736   17.5554  -17.0242 H   0  0  0  0  0  0
  1  2  1  0  0  0
  2  3  1  0  0  0
  2  4  1  0  0  0
  2  5  1  0  0  0
  5  6  2  0  0  0
  5 23  1  0  0  0
  6  7  1  0  0  0
  6 20  1  0  0  0
  7  8  1  0  0  0
  7 24  1  0  0  0
  8  9  1  0  0  0
  8 15  2  0  0  0
  9 10  1  0  0  0
 10 11  2  0  0  0
 10 12  1  0  0  0
 12 13  1  0  0  0
 12 14  2  0  0  0
 14 15  1  0  0  0
 14 19  1  0  0  0
 15 16  1  0  0  0
 16 17  2  0  0  0
 17 18  1  0  0  0
 18 19  2  0  0  0
 20 21  2  0  0  0
 21 22  1  0  0  0
 22 23  2  0  0  0
M  END
>  <CHROM.0>
179.61836119,-73.95755059,-167.19393975,65.65058679,-31.87326502,59.30291063
-36.39675765,-164.43775895

>  <CHROM.1>
178.34851953,-168.33664338,-4.08344252,-17.98528829,18.26663201,-16.84735760
2.70831019,0.36806119,0.41916549

>  <Name>
F3168-1684

>  <RI>
2.06872e+07

>  <Rbt.Current_Directory>
/home/adria/Escritorio/rDock_CMTR_LC/2pxcA_model/inputs_sah

>  <Rbt.Executable>
rbdock ($Id: //depot/dev/client3/rdock/2013.1/src/exe/rbdock.cxx#4 $)

>  <Rbt.Library>
libRbt.so (2013.1, Build901 2013/11/27)

>  <Rbt.Parameter_File>
/home/adria/Escritorio/rDock_2013.1_src/data/scripts/dock.prm

>  <Rbt.Receptor>
sah_rdock.prm

>  <SCORE>
-32.1951

>  <SCORE.INTER>
-16.1125

>  <SCORE.INTER.CONST>
1

>  <SCORE.INTER.POLAR>
-0.582678

>  <SCORE.INTER.REPUL>
0.0144244

>  <SCORE.INTER.ROT>
3

>  <SCORE.INTER.VDW>
-22.6035

>  <SCORE.INTER.norm>
-0.732386

>  <SCORE.INTRA>
-8.93697

>  <SCORE.INTRA.DIHEDRAL>
-2.81164

>  <SCORE.INTRA.DIHEDRAL.0>
3.98698

>  <SCORE.INTRA.POLAR>
0

>  <SCORE.INTRA.POLAR.0>
0

>  <SCORE.INTRA.REPUL>
0

>  <SCORE.INTRA.REPUL.0>
0

>  <SCORE.INTRA.VDW>
-7.53115

>  <SCORE.INTRA.VDW.0>
6.44422

>  <SCORE.INTRA.norm>
-0.406226

>  <SCORE.RESTR>
0

>  <SCORE.RESTR.CAVITY>
0

>  <SCORE.RESTR.norm>
0

>  <SCORE.SYSTEM>
-7.14562

>  <SCORE.SYSTEM.CONST>
0

>  <SCORE.SYSTEM.DIHEDRAL>
6.26861

>  <SCORE.SYSTEM.POLAR>
-3.9647

>  <SCORE.SYSTEM.REPUL>
0.0402005

>  <SCORE.SYSTEM.VDW>
2.99904

>  <SCORE.SYSTEM.norm>
-0.324801

>  <SCORE.heavy>
22

>  <SCORE.norm>
-1.46341

$$$$
F3168-1684
  rDOCK(R)          3D
libRbt.so/2013.1/901 2013/11/27
 24 26  0  0  0  0  0  0  0  0999 V2000
  -14.4594   15.3333  -14.8006 F   0  0  0  0  0  0
  -14.8024   16.0022  -15.9444 C   0  0  0  0  0  0
  -15.7421   16.9114  -15.5576 F   0  0  0  0  0  0
  -13.7039   16.7266  -16.2912 F   0  0  0  0  0  0
  -15.2789   15.0936  -17.0480 C   0  0  0  0  0  0
  -15.3633   15.5169  -18.3946 C   0  0  0  0  0  0
  -14.9768   16.8247  -18.7688 N   0  0  0  0  0  0
  -15.2597   18.0244  -18.1340 C   0  0  0  0  0  0
  -14.3632   18.9631  -18.0247 N   0  0  0  0  0  0
  -14.6380   20.1726  -17.4493 C   0  0  0  0  0  0
  -13.4967   21.3904  -17.2760 S   0  0  0  0  0  0
  -15.9011   20.4261  -16.9889 N   0  3  0  0  0  0
  -16.0615   21.3365  -16.5789 H   0  0  0  0  0  0
  -16.9174   19.4796  -17.0498 C   0  0  0  0  0  0
  -16.6484   18.2333  -17.6107 C   0  0  0  0  0  0
  -17.6502   17.2559  -17.6283 C   0  0  0  0  0  0
  -18.9151   17.5478  -17.1085 C   0  0  0  0  0  0
  -19.1797   18.8062  -16.5670 C   0  0  0  0  0  0
  -18.1787   19.7764  -16.5335 C   0  0  0  0  0  0
  -15.8713   14.6054  -19.3355 C   0  0  0  0  0  0
  -16.2697   13.3160  -18.9725 C   0  0  0  0  0  0
  -16.1802   12.9072  -17.6498 C   0  0  0  0  0  0
  -15.6931   13.7914  -16.6923 C   0  0  0  0  0  0
  -14.3938   16.8638  -19.5970 H   0  0  0  0  0  0
  1  2  1  0  0  0
  2  3  1  0  0  0
  2  4  1  0  0  0
  2  5  1  0  0  0
  5  6  2  0  0  0
  5 23  1  0  0  0
  6  7  1  0  0  0
  6 20  1  0  0  0
  7  8  1  0  0  0
  7 24  1  0  0  0
  8  9  1  0  0  0
  8 15  2  0  0  0
  9 10  1  0  0  0
 10 11  2  0  0  0
 10 12  1  0  0  0
 12 13  1  0  0  0
 12 14  2  0  0  0
 14 15  1  0  0  0
 14 19  1  0  0  0
 15 16  1  0  0  0
 16 17  2  0  0  0
 17 18  1  0  0  0
 18 19  2  0  0  0
 20 21  2  0  0  0
 21 22  1  0  0  0
 22 23  2  0  0  0
M  END
>  <CHROM.0>
-177.62343410,68.91327407,73.51062306,65.62956286,-30.44995504,61.46372059
-156.35751442,-163.38203967

>  <CHROM.1>
-163.85910188,-43.84633831,139.48841901,-15.67010026,17.36636037,-17.17858357
-1.66426059,-0.06613512,0.04123443

>  <Name>
F3168-1684

>  <RI>
2.06872e+07

>  <Rbt.Current_Directory>
/home/adria/Escritorio/rDock_CMTR_LC/2pxcA_model/inputs_sah

>  <Rbt.Executable>
rbdock ($Id: //depot/dev/client3/rdock/2013.1/src/exe/rbdock.cxx#4 $)

>  <Rbt.Library>
libRbt.so (2013.1, Build901 2013/11/27)

>  <Rbt.Parameter_File>
/home/adria/Escritorio/rDock_2013.1_src/data/scripts/dock.prm

>  <Rbt.Receptor>
sah_rdock.prm

>  <SCORE>
-25.4076

>  <SCORE.INTER>
-13.4536

>  <SCORE.INTER.CONST>
1

>  <SCORE.INTER.POLAR>
0

>  <SCORE.INTER.REPUL>
0

>  <SCORE.INTER.ROT>
3

>  <SCORE.INTER.VDW>
-21.8536

>  <SCORE.INTER.norm>
-0.611527

>  <SCORE.INTRA>
-4.82387

>  <SCORE.INTRA.DIHEDRAL>
8.68586

>  <SCORE.INTRA.DIHEDRAL.0>
3.98698

>  <SCORE.INTRA.POLAR>
0

>  <SCORE.INTRA.POLAR.0>
0

>  <SCORE.INTRA.REPUL>
0

>  <SCORE.INTRA.REPUL.0>
0

>  <SCORE.INTRA.VDW>
-9.1668

>  <SCORE.INTRA.VDW.0>
6.44422

>  <SCORE.INTRA.norm>
-0.219267

>  <SCORE.RESTR>
0

>  <SCORE.RESTR.CAVITY>
0

>  <SCORE.RESTR.norm>
0

>  <SCORE.SYSTEM>
-7.1301

>  <SCORE.SYSTEM.CONST>
0

>  <SCORE.SYSTEM.DIHEDRAL>
6.12499

>  <SCORE.SYSTEM.POLAR>
-3.79789

>  <SCORE.SYSTEM.VDW>
2.72023

>  <SCORE.SYSTEM.norm>
-0.324095

>  <SCORE.heavy>
22

>  <SCORE.norm>
-1.15489

$$$$
F3168-1684
  rDOCK(R)          3D
libRbt.so/2013.1/901 2013/11/27
 24 26  0  0  0  0  0  0  0  0999 V2000
  -21.1675   18.1780  -10.8602 F   0  0  0  0  0  0
  -21.0740   18.9181  -12.0077 C   0  0  0  0  0  0
  -19.8180   18.6816  -12.4832 F   0  0  0  0  0  0
  -21.9242   18.3324  -12.8943 F   0  0  0  0  0  0
  -21.3605   20.3827  -11.7993 C   0  0  0  0  0  0
  -20.7257   21.3941  -12.5566 C   0  0  0  0  0  0
  -19.7974   21.0650  -13.5714 N   0  0  0  0  0  0
  -20.0074   20.3347  -14.7309 C   0  0  0  0  0  0
  -21.2087   20.0461  -15.1439 N   0  0  0  0  0  0
  -21.4379   19.3728  -16.3116 C   0  0  0  0  0  0
  -22.9730   18.9692  -16.8558 S   0  0  0  0  0  0
  -20.3776   19.0037  -17.0936 N   0  3  0  0  0  0
  -20.5943   18.5156  -17.9523 H   0  0  0  0  0  0
  -19.0609   19.2559  -16.7263 C   0  0  0  0  0  0
  -18.8081   19.9193  -15.5279 C   0  0  0  0  0  0
  -17.4846   20.1306  -15.1243 C   0  0  0  0  0  0
  -16.4326   19.6988  -15.9379 C   0  0  0  0  0  0
  -16.6972   19.0530  -17.1461 C   0  0  0  0  0  0
  -18.0147   18.8267  -17.5429 C   0  0  0  0  0  0
  -21.0267   22.7306  -12.2442 C   0  0  0  0  0  0
  -21.9315   23.0657  -11.2331 C   0  0  0  0  0  0
  -22.5529   22.0672  -10.4973 C   0  0  0  0  0  0
  -22.2659   20.7343  -10.7744 C   0  0  0  0  0  0
  -18.8700   21.4470  -13.4247 H   0  0  0  0  0  0
  1  2  1  0  0  0
  2  3  1  0  0  0
  2  4  1  0  0  0
  2  5  1  0  0  0
  5  6  2  0  0  0
  5 23  1  0  0  0
  6  7  1  0  0  0
  6 20  1  0  0  0
  7  8  1  0  0  0
  7 24  1  0  0  0
  8  9  1  0  0  0
  8 15  2  0  0  0
  9 10  1  0  0  0
 10 11  2  0  0  0
 10 12  1  0  0  0
 12 13  1  0  0  0
 12 14  2  0  0  0
 14 15  1  0  0  0
 14 19  1  0  0  0
 15 16  1  0  0  0
 16 17  2  0  0  0
 17 18  1  0  0  0
 18 19  2  0  0  0
 20 21  2  0  0  0
 21 22  1  0  0  0
 22 23  2  0  0  0
M  END
>  <CHROM.0>
-58.63978294,-169.22528253,-128.90551823,-62.84117062,168.58224818,62.49141232
83.90379494,-163.62350180

>  <CHROM.1>
147.53321627,61.88849725,12.48373045,-20.47419773,19.85751840,-14.12215934
-2.04308535,-0.14416632,-1.92138335

>  <Name>
F3168-1684

>  <RI>
2.06872e+07

>  <Rbt.Current_Directory>
/home/adria/Escritorio/rDock_CMTR_LC/2pxcA_model/inputs_sah

>  <Rbt.Executable>
rbdock ($Id: //depot/dev/client3/rdock/2013.1/src/exe/rbdock.cxx#4 $)

>  <Rbt.Library>
libRbt.so (2013.1, Build901 2013/11/27)

>  <Rbt.Parameter_File>
/home/adria/Escritorio/rDock_2013.1_src/data/scripts/dock.prm

>  <Rbt.Receptor>
sah_rdock.prm

>  <SCORE>
-18.0504

>  <SCORE.INTER>
-11.8042

>  <SCORE.INTER.CONST>
1

>  <SCORE.INTER.POLAR>
-1.31409

>  <SCORE.INTER.REPUL>
0.135845

>  <SCORE.INTER.ROT>
3

>  <SCORE.INTER.VDW>
-16.4155

>  <SCORE.INTER.norm>
-0.536556

>  <SCORE.INTRA>
-5.4975

>  <SCORE.INTRA.DIHEDRAL>
6.92819

>  <SCORE.INTRA.DIHEDRAL.0>
3.98698

>  <SCORE.INTRA.POLAR>
0

>  <SCORE.INTRA.POLAR.0>
0

>  <SCORE.INTRA.REPUL>
0

>  <SCORE.INTRA.REPUL.0>
0

>  <SCORE.INTRA.VDW>
-8.9616

>  <SCORE.INTRA.VDW.0>
6.44422

>  <SCORE.INTRA.norm>
-0.249886

>  <SCORE.RESTR>
0

>  <SCORE.RESTR.CAVITY>
0

>  <SCORE.RESTR.norm>
0

>  <SCORE.SYSTEM>
-0.748675

>  <SCORE.SYSTEM.CONST>
0

>  <SCORE.SYSTEM.DIHEDRAL>
6.27123

>  <SCORE.SYSTEM.POLAR>
-4.12552

>  <SCORE.SYSTEM.VDW>
10.1425

>  <SCORE.SYSTEM.norm>
-0.0340307

>  <SCORE.heavy>
22

>  <SCORE.norm>
-0.820473

$$$$
