F3205-0009
  rDOCK(R)          3D
libRbt.so/2013.1/901 2013/11/27
 25 28  0  0  0  0  0  0  0  0999 V2000
  -18.6906   20.8901  -12.1307 O   0  0  0  0  0  0
  -19.8084   21.1704  -12.5357 C   0  0  0  0  0  0
  -20.1517   22.4557  -13.2181 C   0  0  0  0  0  0
  -21.6731   22.4703  -13.1950 C   0  0  0  0  0  0
  -22.3264   23.1294  -11.9450 C   0  0  0  0  0  0
  -23.8678   23.0097  -11.9610 C   0  0  0  0  0  0
  -24.4877   23.7984  -13.1112 C   0  0  0  0  0  0
  -24.0120   25.2525  -13.1507 C   0  0  0  0  0  0
  -22.7227   25.5341  -12.4321 C   0  0  0  0  0  0
  -21.9500   24.6094  -11.8314 C   0  0  0  0  0  0
  -20.8559   24.9666  -11.0407 N   0  0  0  0  0  0
  -19.9997   23.9734  -10.3514 C   0  0  0  0  0  0
  -18.5226   24.3799  -10.3971 C   0  0  0  0  0  0
  -18.3237   25.7043   -9.8797 O   0  0  0  0  0  0
  -19.0724   26.6474  -10.6596 C   0  0  0  0  0  0
  -20.5808   26.3554  -10.6147 C   0  0  0  0  0  0
  -21.9478   20.9866  -13.1889 C   0  0  0  0  0  0
  -22.9450   20.4930  -13.6964 O   0  0  0  0  0  0
  -20.9118   20.3539  -12.5608 N   0  0  0  0  0  0
  -20.8151   18.9501  -12.1299 C   0  0  0  0  0  0
  -21.8241   18.6412  -11.0028 C   0  0  0  0  0  0
  -23.2463   18.4526  -11.5222 C   0  0  0  0  0  0
  -23.3053   17.3447  -12.5658 C   0  0  0  0  0  0
  -22.3427   17.6103  -13.7160 C   0  0  0  0  0  0
  -20.9155   17.8798  -13.2308 C   0  0  0  0  0  0
  1  2  2  0  0  0
  2  3  1  0  0  0
  2 19  1  0  0  0
  3  4  1  0  0  0
  4  5  1  0  0  0
  4 17  1  0  0  0
  5  6  1  0  0  0
  5 10  1  0  0  0
  6  7  1  0  0  0
  7  8  1  0  0  0
  8  9  1  0  0  0
  9 10  2  0  0  0
 10 11  1  0  0  0
 11 12  1  0  0  0
 11 16  1  0  0  0
 12 13  1  0  0  0
 13 14  1  0  0  0
 14 15  1  0  0  0
 15 16  1  0  0  0
 17 18  2  0  0  0
 17 19  1  0  0  0
 19 20  1  0  0  0
 20 21  1  0  0  0
 20 25  1  0  0  0
 21 22  1  0  0  0
 22 23  1  0  0  0
 23 24  1  0  0  0
 24 25  1  0  0  0
M  END
>  <CHROM.0>
-59.39625299,-75.85139916,75.30256907,64.93879014,167.99814753,-58.07004865
83.02083807,-162.78051671

>  <CHROM.1>
-175.96653667,2.85225822,123.82793670,-21.38525113,22.20040665,-12.06805491
-1.83171151,-0.35596169,0.14602465

>  <Name>
F3205-0009

>  <RI>
3.01448e+07

>  <Rbt.Current_Directory>
/home/adria/Escritorio/rDock_CMTR_LC/2pxcA_model/inputs_sah

>  <Rbt.Executable>
rbdock ($Id: //depot/dev/client3/rdock/2013.1/src/exe/rbdock.cxx#4 $)

>  <Rbt.Library>
libRbt.so (2013.1, Build901 2013/11/27)

>  <Rbt.Parameter_File>
/home/adria/Escritorio/rDock_2013.1_src/data/scripts/dock.prm

>  <Rbt.Receptor>
sah_rdock.prm

>  <SCORE>
-33.62

>  <SCORE.INTER>
-7.2461

>  <SCORE.INTER.CONST>
1

>  <SCORE.INTER.POLAR>
0

>  <SCORE.INTER.REPUL>
0

>  <SCORE.INTER.ROT>
3

>  <SCORE.INTER.VDW>
-15.6461

>  <SCORE.INTER.norm>
-0.289844

>  <SCORE.INTRA>
-23.5582

>  <SCORE.INTRA.DIHEDRAL>
-48.6066

>  <SCORE.INTRA.DIHEDRAL.0>
53.4367

>  <SCORE.INTRA.POLAR>
0

>  <SCORE.INTRA.POLAR.0>
0

>  <SCORE.INTRA.REPUL>
0

>  <SCORE.INTRA.REPUL.0>
0

>  <SCORE.INTRA.VDW>
0.74515

>  <SCORE.INTRA.VDW.0>
-2.8946

>  <SCORE.INTRA.norm>
-0.942327

>  <SCORE.RESTR>
0

>  <SCORE.RESTR.CAVITY>
0

>  <SCORE.RESTR.norm>
0

>  <SCORE.SYSTEM>
-2.81571

>  <SCORE.SYSTEM.CONST>
0

>  <SCORE.SYSTEM.DIHEDRAL>
4.11402

>  <SCORE.SYSTEM.POLAR>
-4.02235

>  <SCORE.SYSTEM.REPUL>
0.043225

>  <SCORE.SYSTEM.VDW>
8.58715

>  <SCORE.SYSTEM.norm>
-0.112629

>  <SCORE.heavy>
25

>  <SCORE.norm>
-1.3448

$$$$
F3205-0009
  rDOCK(R)          3D
libRbt.so/2013.1/901 2013/11/27
 25 28  0  0  0  0  0  0  0  0999 V2000
  -19.9822   16.2458  -16.0387 O   0  0  0  0  0  0
  -19.5674   17.2045  -15.4055 C   0  0  0  0  0  0
  -20.0233   17.5543  -14.0252 C   0  0  0  0  0  0
  -19.5068   18.9727  -13.8334 C   0  0  0  0  0  0
  -20.4690   20.1115  -14.2817 C   0  0  0  0  0  0
  -19.9999   21.4996  -13.7878 C   0  0  0  0  0  0
  -20.0475   21.6079  -12.2662 C   0  0  0  0  0  0
  -21.4085   21.2098  -11.6906 C   0  0  0  0  0  0
  -22.2633   20.3502  -12.5787 C   0  0  0  0  0  0
  -21.8956   19.8685  -13.7810 C   0  0  0  0  0  0
  -22.8020   19.2189  -14.6214 N   0  0  0  0  0  0
  -22.4821   18.8452  -16.0187 C   0  0  0  0  0  0
  -23.0688   17.4763  -16.3806 C   0  0  0  0  0  0
  -24.4806   17.4233  -16.1254 O   0  0  0  0  0  0
  -24.7316   17.6648  -14.7337 C   0  0  0  0  0  0
  -24.2347   19.0520  -14.2964 C   0  0  0  0  0  0
  -18.3035   18.9369  -14.7432 C   0  0  0  0  0  0
  -17.2955   19.5984  -14.5386 O   0  0  0  0  0  0
  -18.5510   18.0568  -15.7592 N   0  0  0  0  0  0
  -17.7777   17.8305  -16.9907 C   0  0  0  0  0  0
  -17.2488   19.1603  -17.5703 C   0  0  0  0  0  0
  -16.0271   19.6837  -16.8210 C   0  0  0  0  0  0
  -14.9038   18.6550  -16.8197 C   0  0  0  0  0  0
  -15.3653   17.3262  -16.2356 C   0  0  0  0  0  0
  -16.6356   16.8024  -16.9116 C   0  0  0  0  0  0
  1  2  2  0  0  0
  2  3  1  0  0  0
  2 19  1  0  0  0
  3  4  1  0  0  0
  4  5  1  0  0  0
  4 17  1  0  0  0
  5  6  1  0  0  0
  5 10  1  0  0  0
  6  7  1  0  0  0
  7  8  1  0  0  0
  8  9  1  0  0  0
  9 10  2  0  0  0
 10 11  1  0  0  0
 11 12  1  0  0  0
 11 16  1  0  0  0
 12 13  1  0  0  0
 13 14  1  0  0  0
 14 15  1  0  0  0
 15 16  1  0  0  0
 17 18  2  0  0  0
 17 19  1  0  0  0
 19 20  1  0  0  0
 20 21  1  0  0  0
 20 25  1  0  0  0
 21 22  1  0  0  0
 22 23  1  0  0  0
 23 24  1  0  0  0
 24 25  1  0  0  0
M  END
>  <CHROM.0>
-177.61010321,65.09915587,-168.43693229,64.12298075,-31.06687263,-178.90711159
-36.11976652,-162.60891432

>  <CHROM.1>
168.10627898,-4.93417012,150.86593395,-19.97366258,18.79284321,-15.07344909
0.28287465,-0.15090313,-2.38017381

>  <Name>
F3205-0009

>  <RI>
3.01448e+07

>  <Rbt.Current_Directory>
/home/adria/Escritorio/rDock_CMTR_LC/2pxcA_model/inputs_sah

>  <Rbt.Executable>
rbdock ($Id: //depot/dev/client3/rdock/2013.1/src/exe/rbdock.cxx#4 $)

>  <Rbt.Library>
libRbt.so (2013.1, Build901 2013/11/27)

>  <Rbt.Parameter_File>
/home/adria/Escritorio/rDock_2013.1_src/data/scripts/dock.prm

>  <Rbt.Receptor>
sah_rdock.prm

>  <SCORE>
-37.6904

>  <SCORE.INTER>
-8.72049

>  <SCORE.INTER.CONST>
1

>  <SCORE.INTER.POLAR>
0

>  <SCORE.INTER.REPUL>
0.00746183

>  <SCORE.INTER.ROT>
3

>  <SCORE.INTER.VDW>
-17.1578

>  <SCORE.INTER.norm>
-0.34882

>  <SCORE.INTRA>
-22.294

>  <SCORE.INTRA.DIHEDRAL>
-48.9921

>  <SCORE.INTRA.DIHEDRAL.0>
53.4367

>  <SCORE.INTRA.POLAR>
0

>  <SCORE.INTRA.POLAR.0>
0

>  <SCORE.INTRA.REPUL>
0

>  <SCORE.INTRA.REPUL.0>
0

>  <SCORE.INTRA.VDW>
2.20206

>  <SCORE.INTRA.VDW.0>
-2.8946

>  <SCORE.INTRA.norm>
-0.89176

>  <SCORE.RESTR>
0

>  <SCORE.RESTR.CAVITY>
0

>  <SCORE.RESTR.norm>
0

>  <SCORE.SYSTEM>
-6.67588

>  <SCORE.SYSTEM.CONST>
0

>  <SCORE.SYSTEM.DIHEDRAL>
5.62313

>  <SCORE.SYSTEM.POLAR>
-3.62084

>  <SCORE.SYSTEM.VDW>
2.82341

>  <SCORE.SYSTEM.norm>
-0.267035

>  <SCORE.heavy>
25

>  <SCORE.norm>
-1.50761

$$$$
F3205-0009
  rDOCK(R)          3D
libRbt.so/2013.1/901 2013/11/27
 25 28  0  0  0  0  0  0  0  0999 V2000
  -19.0632   22.5238  -14.5820 O   0  0  0  0  0  0
  -19.9140   21.8409  -14.0326 C   0  0  0  0  0  0
  -21.2756   22.3382  -13.6660 C   0  0  0  0  0  0
  -21.7975   21.2676  -12.7190 C   0  0  0  0  0  0
  -21.4742   21.4798  -11.2109 C   0  0  0  0  0  0
  -21.7933   20.2262  -10.3640 C   0  0  0  0  0  0
  -23.2885   19.9208  -10.3408 C   0  0  0  0  0  0
  -24.1300   21.1328   -9.9344 C   0  0  0  0  0  0
  -23.4670   22.4706  -10.1045 C   0  0  0  0  0  0
  -22.2459   22.6706  -10.6352 C   0  0  0  0  0  0
  -21.6277   23.9224  -10.6063 N   0  0  0  0  0  0
  -22.3274   25.1586  -10.1858 C   0  0  0  0  0  0
  -21.4119   26.0655   -9.3560 C   0  0  0  0  0  0
  -20.1885   26.3559  -10.0489 O   0  0  0  0  0  0
  -19.4838   25.1363  -10.3212 C   0  0  0  0  0  0
  -20.3049   24.1890  -11.2105 C   0  0  0  0  0  0
  -21.0399   20.0698  -13.2371 C   0  0  0  0  0  0
  -21.4821   18.9308  -13.1864 O   0  0  0  0  0  0
  -19.8504   20.4976  -13.7568 N   0  0  0  0  0  0
  -18.6937   19.6977  -14.1904 C   0  0  0  0  0  0
  -19.0560   18.1999  -14.2888 C   0  0  0  0  0  0
  -19.8432   17.8672  -15.5527 C   0  0  0  0  0  0
  -19.0744   18.2805  -16.8010 C   0  0  0  0  0  0
  -18.7096   19.7590  -16.7672 C   0  0  0  0  0  0
  -17.9826   20.1504  -15.4776 C   0  0  0  0  0  0
  1  2  2  0  0  0
  2  3  1  0  0  0
  2 19  1  0  0  0
  3  4  1  0  0  0
  4  5  1  0  0  0
  4 17  1  0  0  0
  5  6  1  0  0  0
  5 10  1  0  0  0
  6  7  1  0  0  0
  7  8  1  0  0  0
  8  9  1  0  0  0
  9 10  2  0  0  0
 10 11  1  0  0  0
 11 12  1  0  0  0
 11 16  1  0  0  0
 12 13  1  0  0  0
 13 14  1  0  0  0
 14 15  1  0  0  0
 15 16  1  0  0  0
 17 18  2  0  0  0
 17 19  1  0  0  0
 19 20  1  0  0  0
 20 21  1  0  0  0
 20 25  1  0  0  0
 21 22  1  0  0  0
 22 23  1  0  0  0
 23 24  1  0  0  0
 24 25  1  0  0  0
M  END
>  <CHROM.0>
-61.87692662,-72.42978562,72.61507385,64.36416775,168.29829836,-57.98810999
-156.62185183,-163.40566746

>  <CHROM.1>
-168.82368848,174.28358441,-157.50498830,-20.76014712,21.62881327,-12.50772379
-1.14030258,0.74267584,0.48935173

>  <Name>
F3205-0009

>  <RI>
3.01448e+07

>  <Rbt.Current_Directory>
/home/adria/Escritorio/rDock_CMTR_LC/2pxcA_model/inputs_sah

>  <Rbt.Executable>
rbdock ($Id: //depot/dev/client3/rdock/2013.1/src/exe/rbdock.cxx#4 $)

>  <Rbt.Library>
libRbt.so (2013.1, Build901 2013/11/27)

>  <Rbt.Parameter_File>
/home/adria/Escritorio/rDock_2013.1_src/data/scripts/dock.prm

>  <Rbt.Receptor>
sah_rdock.prm

>  <SCORE>
-39.9614

>  <SCORE.INTER>
-15.5299

>  <SCORE.INTER.CONST>
1

>  <SCORE.INTER.POLAR>
-0.938083

>  <SCORE.INTER.REPUL>
0.00683605

>  <SCORE.INTER.ROT>
3

>  <SCORE.INTER.VDW>
-20.7746

>  <SCORE.INTER.norm>
-0.621195

>  <SCORE.INTRA>
-21.2906

>  <SCORE.INTRA.DIHEDRAL>
-49.7458

>  <SCORE.INTRA.DIHEDRAL.0>
53.4367

>  <SCORE.INTRA.POLAR>
0

>  <SCORE.INTRA.POLAR.0>
0

>  <SCORE.INTRA.REPUL>
0

>  <SCORE.INTRA.REPUL.0>
0

>  <SCORE.INTRA.VDW>
3.58233

>  <SCORE.INTRA.VDW.0>
-2.8946

>  <SCORE.INTRA.norm>
-0.851624

>  <SCORE.RESTR>
0

>  <SCORE.RESTR.CAVITY>
0

>  <SCORE.RESTR.norm>
0

>  <SCORE.SYSTEM>
-3.14092

>  <SCORE.SYSTEM.CONST>
0

>  <SCORE.SYSTEM.DIHEDRAL>
3.47033

>  <SCORE.SYSTEM.POLAR>
-4.04141

>  <SCORE.SYSTEM.REPUL>
0.0375014

>  <SCORE.SYSTEM.VDW>
8.67721

>  <SCORE.SYSTEM.norm>
-0.125637

>  <SCORE.heavy>
25

>  <SCORE.norm>
-1.59846

$$$$
F3205-0009
  rDOCK(R)          3D
libRbt.so/2013.1/901 2013/11/27
 25 28  0  0  0  0  0  0  0  0999 V2000
  -23.5843   19.6448  -12.7586 O   0  0  0  0  0  0
  -22.6031   20.2532  -12.3596 C   0  0  0  0  0  0
  -22.5603   21.0198  -11.0766 C   0  0  0  0  0  0
  -21.2983   21.8594  -11.2109 C   0  0  0  0  0  0
  -21.4808   23.2579  -11.8703 C   0  0  0  0  0  0
  -20.2471   24.1664  -11.6620 C   0  0  0  0  0  0
  -20.0425   24.5196  -10.1914 C   0  0  0  0  0  0
  -21.3062   25.0886   -9.5420 C   0  0  0  0  0  0
  -22.5973   24.7643  -10.2390 C   0  0  0  0  0  0
  -22.7178   23.9769  -11.3245 C   0  0  0  0  0  0
  -23.9251   23.8574  -12.0159 N   0  0  0  0  0  0
  -24.0406   23.1772  -13.3268 C   0  0  0  0  0  0
  -25.3342   22.3608  -13.4220 C   0  0  0  0  0  0
  -26.4882   23.1658  -13.1366 O   0  0  0  0  0  0
  -26.3915   23.6990  -11.8082 C   0  0  0  0  0  0
  -25.1520   24.5923  -11.6407 C   0  0  0  0  0  0
  -20.4894   20.9697  -12.1225 C   0  0  0  0  0  0
  -19.2677   20.9227  -12.0929 O   0  0  0  0  0  0
  -21.3483   20.2626  -12.9164 N   0  0  0  0  0  0
  -21.0428   19.4279  -14.0893 C   0  0  0  0  0  0
  -20.4434   20.2722  -15.2347 C   0  0  0  0  0  0
  -18.9725   20.6093  -15.0091 C   0  0  0  0  0  0
  -18.1424   19.3447  -14.8306 C   0  0  0  0  0  0
  -18.6776   18.4821  -13.6950 C   0  0  0  0  0  0
  -20.1719   18.1831  -13.8448 C   0  0  0  0  0  0
  1  2  2  0  0  0
  2  3  1  0  0  0
  2 19  1  0  0  0
  3  4  1  0  0  0
  4  5  1  0  0  0
  4 17  1  0  0  0
  5  6  1  0  0  0
  5 10  1  0  0  0
  6  7  1  0  0  0
  7  8  1  0  0  0
  8  9  1  0  0  0
  9 10  2  0  0  0
 10 11  1  0  0  0
 11 12  1  0  0  0
 11 16  1  0  0  0
 12 13  1  0  0  0
 13 14  1  0  0  0
 14 15  1  0  0  0
 15 16  1  0  0  0
 17 18  2  0  0  0
 17 19  1  0  0  0
 19 20  1  0  0  0
 20 21  1  0  0  0
 20 25  1  0  0  0
 21 22  1  0  0  0
 22 23  1  0  0  0
 23 24  1  0  0  0
 24 25  1  0  0  0
M  END
>  <CHROM.0>
-175.65540658,-75.64149725,-163.73455183,64.44091295,168.10793115,-61.88199763
82.77129999,-161.46927758

>  <CHROM.1>
166.23798975,-6.21772293,126.32242970,-21.95684417,21.90200752,-12.47645645
0.79289316,0.15684363,-2.51621698

>  <Name>
F3205-0009

>  <RI>
3.01448e+07

>  <Rbt.Current_Directory>
/home/adria/Escritorio/rDock_CMTR_LC/2pxcA_model/inputs_sah

>  <Rbt.Executable>
rbdock ($Id: //depot/dev/client3/rdock/2013.1/src/exe/rbdock.cxx#4 $)

>  <Rbt.Library>
libRbt.so (2013.1, Build901 2013/11/27)

>  <Rbt.Parameter_File>
/home/adria/Escritorio/rDock_2013.1_src/data/scripts/dock.prm

>  <Rbt.Receptor>
sah_rdock.prm

>  <SCORE>
-35.1885

>  <SCORE.INTER>
-8.89839

>  <SCORE.INTER.CONST>
1

>  <SCORE.INTER.POLAR>
-0.466482

>  <SCORE.INTER.REPUL>
0.0681752

>  <SCORE.INTER.ROT>
3

>  <SCORE.INTER.VDW>
-16.0532

>  <SCORE.INTER.norm>
-0.355935

>  <SCORE.INTRA>
-24.2907

>  <SCORE.INTRA.DIHEDRAL>
-49.2735

>  <SCORE.INTRA.DIHEDRAL.0>
53.4367

>  <SCORE.INTRA.POLAR>
0

>  <SCORE.INTRA.POLAR.0>
0

>  <SCORE.INTRA.REPUL>
0

>  <SCORE.INTRA.REPUL.0>
0

>  <SCORE.INTRA.VDW>
0.34603

>  <SCORE.INTRA.VDW.0>
-2.8946

>  <SCORE.INTRA.norm>
-0.971629

>  <SCORE.RESTR>
0

>  <SCORE.RESTR.CAVITY>
0

>  <SCORE.RESTR.norm>
0

>  <SCORE.SYSTEM>
-1.99942

>  <SCORE.SYSTEM.CONST>
0

>  <SCORE.SYSTEM.DIHEDRAL>
4.24943

>  <SCORE.SYSTEM.POLAR>
-3.88717

>  <SCORE.SYSTEM.REPUL>
0.0429076

>  <SCORE.SYSTEM.VDW>
8.87771

>  <SCORE.SYSTEM.norm>
-0.0799768

>  <SCORE.heavy>
25

>  <SCORE.norm>
-1.40754

$$$$
F3205-0009
  rDOCK(R)          3D
libRbt.so/2013.1/901 2013/11/27
 25 28  0  0  0  0  0  0  0  0999 V2000
  -15.0504   14.6243  -18.6429 O   0  0  0  0  0  0
  -16.2003   14.8773  -18.3174 C   0  0  0  0  0  0
  -16.9294   16.1180  -18.7232 C   0  0  0  0  0  0
  -18.1401   16.1313  -17.8016 C   0  0  0  0  0  0
  -17.9493   16.8643  -16.4414 C   0  0  0  0  0  0
  -19.2397   16.8584  -15.5896 C   0  0  0  0  0  0
  -20.3575   17.6651  -16.2447 C   0  0  0  0  0  0
  -19.9149   19.0788  -16.6289 C   0  0  0  0  0  0
  -18.4322   19.2803  -16.7678 C   0  0  0  0  0  0
  -17.5021   18.3146  -16.6450 C   0  0  0  0  0  0
  -16.1370   18.6075  -16.6201 N   0  0  0  0  0  0
  -15.0960   17.5828  -16.3730 C   0  0  0  0  0  0
  -13.8650   17.8107  -17.2571 C   0  0  0  0  0  0
  -13.3476   19.1416  -17.1081 O   0  0  0  0  0  0
  -14.3507   20.0968  -17.4817 C   0  0  0  0  0  0
  -15.6024   19.9858  -16.5966 C   0  0  0  0  0  0
  -18.3015   14.6503  -17.5621 C   0  0  0  0  0  0
  -19.3859   14.1249  -17.3535 O   0  0  0  0  0  0
  -17.0720   14.0589  -17.6429 N   0  0  0  0  0  0
  -16.6858   12.6842  -17.2868 C   0  0  0  0  0  0
  -15.6452   12.6742  -16.1462 C   0  0  0  0  0  0
  -16.2710   12.9231  -14.7771 C   0  0  0  0  0  0
  -17.3552   11.8965  -14.4762 C   0  0  0  0  0  0
  -18.4236   11.8793  -15.5617 C   0  0  0  0  0  0
  -17.8286   11.7065  -16.9620 C   0  0  0  0  0  0
  1  2  2  0  0  0
  2  3  1  0  0  0
  2 19  1  0  0  0
  3  4  1  0  0  0
  4  5  1  0  0  0
  4 17  1  0  0  0
  5  6  1  0  0  0
  5 10  1  0  0  0
  6  7  1  0  0  0
  7  8  1  0  0  0
  8  9  1  0  0  0
  9 10  2  0  0  0
 10 11  1  0  0  0
 11 12  1  0  0  0
 11 16  1  0  0  0
 12 13  1  0  0  0
 13 14  1  0  0  0
 14 15  1  0  0  0
 15 16  1  0  0  0
 17 18  2  0  0  0
 17 19  1  0  0  0
 19 20  1  0  0  0
 20 21  1  0  0  0
 20 25  1  0  0  0
 21 22  1  0  0  0
 22 23  1  0  0  0
 23 24  1  0  0  0
 24 25  1  0  0  0
M  END
>  <CHROM.0>
-179.54044718,66.21826096,72.92464004,65.48328443,-30.87970477,60.11075529
-157.25350170,-163.79954540

>  <CHROM.1>
178.50943884,-1.49788018,72.20695505,-16.96994045,15.98271060,-16.84059461
-1.81166914,0.15198073,-0.05820505

>  <Name>
F3205-0009

>  <RI>
3.01448e+07

>  <Rbt.Current_Directory>
/home/adria/Escritorio/rDock_CMTR_LC/2pxcA_model/inputs_sah

>  <Rbt.Executable>
rbdock ($Id: //depot/dev/client3/rdock/2013.1/src/exe/rbdock.cxx#4 $)

>  <Rbt.Library>
libRbt.so (2013.1, Build901 2013/11/27)

>  <Rbt.Parameter_File>
/home/adria/Escritorio/rDock_2013.1_src/data/scripts/dock.prm

>  <Rbt.Receptor>
sah_rdock.prm

>  <SCORE>
-46.2017

>  <SCORE.INTER>
-14.8931

>  <SCORE.INTER.CONST>
1

>  <SCORE.INTER.POLAR>
-0.894427

>  <SCORE.INTER.REPUL>
0

>  <SCORE.INTER.ROT>
3

>  <SCORE.INTER.VDW>
-20.252

>  <SCORE.INTER.norm>
-0.595724

>  <SCORE.INTRA>
-24.145

>  <SCORE.INTRA.DIHEDRAL>
-49.9899

>  <SCORE.INTRA.DIHEDRAL.0>
53.4367

>  <SCORE.INTRA.POLAR>
0

>  <SCORE.INTRA.POLAR.0>
0

>  <SCORE.INTRA.REPUL>
0

>  <SCORE.INTRA.REPUL.0>
0

>  <SCORE.INTRA.VDW>
0.849949

>  <SCORE.INTRA.VDW.0>
-2.8946

>  <SCORE.INTRA.norm>
-0.965801

>  <SCORE.RESTR>
0.0198066

>  <SCORE.RESTR.CAVITY>
0.0198066

>  <SCORE.RESTR.norm>
0.000792263

>  <SCORE.SYSTEM>
-7.18344

>  <SCORE.SYSTEM.CONST>
0

>  <SCORE.SYSTEM.DIHEDRAL>
5.67483

>  <SCORE.SYSTEM.POLAR>
-3.76286

>  <SCORE.SYSTEM.VDW>
2.77288

>  <SCORE.SYSTEM.norm>
-0.287338

>  <SCORE.heavy>
25

>  <SCORE.norm>
-1.84807

$$$$
F3205-0009
  rDOCK(R)          3D
libRbt.so/2013.1/901 2013/11/27
 25 28  0  0  0  0  0  0  0  0999 V2000
  -20.9603   18.8737  -17.3114 O   0  0  0  0  0  0
  -19.9668   19.5130  -17.0011 C   0  0  0  0  0  0
  -18.8105   19.7567  -17.9173 C   0  0  0  0  0  0
  -17.7222   20.2637  -16.9824 C   0  0  0  0  0  0
  -16.8057   19.1735  -16.3539 C   0  0  0  0  0  0
  -15.5162   19.7741  -15.7477 C   0  0  0  0  0  0
  -14.6156   20.3850  -16.8178 C   0  0  0  0  0  0
  -14.3273   19.4163  -17.9669 C   0  0  0  0  0  0
  -15.3032   18.2843  -18.1227 C   0  0  0  0  0  0
  -16.4147   18.1094  -17.3833 C   0  0  0  0  0  0
  -17.1818   16.9459  -17.4727 N   0  0  0  0  0  0
  -16.9516   15.9044  -18.5007 C   0  0  0  0  0  0
  -17.1331   14.4968  -17.9221 C   0  0  0  0  0  0
  -18.4137   14.3473  -17.2905 O   0  0  0  0  0  0
  -18.5393   15.2922  -16.2183 C   0  0  0  0  0  0
  -18.4378   16.7415  -16.7200 C   0  0  0  0  0  0
  -18.5744   20.8924  -15.9074 C   0  0  0  0  0  0
  -18.2113   21.8585  -15.2515 O   0  0  0  0  0  0
  -19.7606   20.2167  -15.8406 N   0  0  0  0  0  0
  -20.8234   20.3195  -14.8278 C   0  0  0  0  0  0
  -21.4254   18.9342  -14.5075 C   0  0  0  0  0  0
  -20.5360   18.1055  -13.5854 C   0  0  0  0  0  0
  -20.2584   18.8452  -12.2831 C   0  0  0  0  0  0
  -19.6411   20.2138  -12.5398 C   0  0  0  0  0  0
  -20.4663   21.0503  -13.5217 C   0  0  0  0  0  0
  1  2  2  0  0  0
  2  3  1  0  0  0
  2 19  1  0  0  0
  3  4  1  0  0  0
  4  5  1  0  0  0
  4 17  1  0  0  0
  5  6  1  0  0  0
  5 10  1  0  0  0
  6  7  1  0  0  0
  7  8  1  0  0  0
  8  9  1  0  0  0
  9 10  2  0  0  0
 10 11  1  0  0  0
 11 12  1  0  0  0
 11 16  1  0  0  0
 12 13  1  0  0  0
 13 14  1  0  0  0
 14 15  1  0  0  0
 15 16  1  0  0  0
 17 18  2  0  0  0
 17 19  1  0  0  0
 19 20  1  0  0  0
 20 21  1  0  0  0
 20 25  1  0  0  0
 21 22  1  0  0  0
 22 23  1  0  0  0
 23 24  1  0  0  0
 24 25  1  0  0  0
M  END
>  <CHROM.0>
-62.44652713,67.81704542,-7.43526874,66.48159839,-29.62532122,-54.59888762
84.58525333,-160.27665964

>  <CHROM.1>
164.26656491,175.22010980,48.92819913,-18.29388563,18.67937534,-16.15216265
2.36818036,0.54032072,0.35570821

>  <Name>
F3205-0009

>  <RI>
3.01448e+07

>  <Rbt.Current_Directory>
/home/adria/Escritorio/rDock_CMTR_LC/2pxcA_model/inputs_sah

>  <Rbt.Executable>
rbdock ($Id: //depot/dev/client3/rdock/2013.1/src/exe/rbdock.cxx#4 $)

>  <Rbt.Library>
libRbt.so (2013.1, Build901 2013/11/27)

>  <Rbt.Parameter_File>
/home/adria/Escritorio/rDock_2013.1_src/data/scripts/dock.prm

>  <Rbt.Receptor>
sah_rdock.prm

>  <SCORE>
-42.5807

>  <SCORE.INTER>
-12.9831

>  <SCORE.INTER.CONST>
1

>  <SCORE.INTER.POLAR>
0

>  <SCORE.INTER.REPUL>
0.0896816

>  <SCORE.INTER.ROT>
3

>  <SCORE.INTER.VDW>
-21.8315

>  <SCORE.INTER.norm>
-0.519323

>  <SCORE.INTRA>
-22.8359

>  <SCORE.INTRA.DIHEDRAL>
-48.8728

>  <SCORE.INTRA.DIHEDRAL.0>
53.4367

>  <SCORE.INTRA.POLAR>
0

>  <SCORE.INTRA.POLAR.0>
0

>  <SCORE.INTRA.REPUL>
0

>  <SCORE.INTRA.REPUL.0>
0

>  <SCORE.INTRA.VDW>
1.6005

>  <SCORE.INTRA.VDW.0>
-2.8946

>  <SCORE.INTRA.norm>
-0.913436

>  <SCORE.RESTR>
0

>  <SCORE.RESTR.CAVITY>
0

>  <SCORE.RESTR.norm>
0

>  <SCORE.SYSTEM>
-6.76168

>  <SCORE.SYSTEM.CONST>
0

>  <SCORE.SYSTEM.DIHEDRAL>
9.58315

>  <SCORE.SYSTEM.POLAR>
-4.30586

>  <SCORE.SYSTEM.VDW>
3.08668

>  <SCORE.SYSTEM.norm>
-0.270467

>  <SCORE.heavy>
25

>  <SCORE.norm>
-1.70323

$$$$
F3205-0009
  rDOCK(R)          3D
libRbt.so/2013.1/901 2013/11/27
 25 28  0  0  0  0  0  0  0  0999 V2000
  -19.4589   16.3611  -15.3580 O   0  0  0  0  0  0
  -18.7430   17.2983  -15.6763 C   0  0  0  0  0  0
  -18.1884   17.4966  -17.0506 C   0  0  0  0  0  0
  -17.1130   18.5536  -16.8464 C   0  0  0  0  0  0
  -15.6908   18.0181  -16.5085 C   0  0  0  0  0  0
  -14.6921   19.1610  -16.2131 C   0  0  0  0  0  0
  -14.4351   20.0244  -17.4451 C   0  0  0  0  0  0
  -14.0350   19.1978  -18.6694 C   0  0  0  0  0  0
  -14.4215   17.7462  -18.6278 C   0  0  0  0  0  0
  -15.1313   17.1590  -17.6459 C   0  0  0  0  0  0
  -15.3072   15.7748  -17.5927 N   0  0  0  0  0  0
  -15.9320   15.0843  -16.4406 C   0  0  0  0  0  0
  -16.8364   13.9353  -16.8997 C   0  0  0  0  0  0
  -16.1331   13.0186  -17.7520 O   0  0  0  0  0  0
  -15.6570   13.7072  -18.9170 C   0  0  0  0  0  0
  -14.6833   14.8394  -18.5528 C   0  0  0  0  0  0
  -17.6815   19.2756  -15.6495 C   0  0  0  0  0  0
  -17.4986   20.4671  -15.4432 O   0  0  0  0  0  0
  -18.4091   18.3866  -14.9090 N   0  0  0  0  0  0
  -18.9803   18.5584  -13.5636 C   0  0  0  0  0  0
  -18.7306   19.9853  -13.0291 C   0  0  0  0  0  0
  -19.6797   21.0148  -13.6352 C   0  0  0  0  0  0
  -21.1330   20.6328  -13.3858 C   0  0  0  0  0  0
  -21.4416   19.2382  -13.9151 C   0  0  0  0  0  0
  -20.4627   18.1852  -13.3883 C   0  0  0  0  0  0
  1  2  2  0  0  0
  2  3  1  0  0  0
  2 19  1  0  0  0
  3  4  1  0  0  0
  4  5  1  0  0  0
  4 17  1  0  0  0
  5  6  1  0  0  0
  5 10  1  0  0  0
  6  7  1  0  0  0
  7  8  1  0  0  0
  8  9  1  0  0  0
  9 10  2  0  0  0
 10 11  1  0  0  0
 11 12  1  0  0  0
 11 16  1  0  0  0
 12 13  1  0  0  0
 13 14  1  0  0  0
 14 15  1  0  0  0
 15 16  1  0  0  0
 17 18  2  0  0  0
 17 19  1  0  0  0
 19 20  1  0  0  0
 20 21  1  0  0  0
 20 25  1  0  0  0
 21 22  1  0  0  0
 22 23  1  0  0  0
 23 24  1  0  0  0
 24 25  1  0  0  0
M  END
>  <CHROM.0>
-61.06698765,-167.52877810,-7.41438904,64.35555334,-29.57843490,-179.88175213
-157.38939149,-162.34561636

>  <CHROM.1>
-175.65052261,-4.22824961,-166.82376336,-17.23557109,17.69691697,-16.11906374
2.40568413,0.58471383,0.24219854

>  <Name>
F3205-0009

>  <RI>
3.01448e+07

>  <Rbt.Current_Directory>
/home/adria/Escritorio/rDock_CMTR_LC/2pxcA_model/inputs_sah

>  <Rbt.Executable>
rbdock ($Id: //depot/dev/client3/rdock/2013.1/src/exe/rbdock.cxx#4 $)

>  <Rbt.Library>
libRbt.so (2013.1, Build901 2013/11/27)

>  <Rbt.Parameter_File>
/home/adria/Escritorio/rDock_2013.1_src/data/scripts/dock.prm

>  <Rbt.Receptor>
sah_rdock.prm

>  <SCORE>
-42.6955

>  <SCORE.INTER>
-14.2561

>  <SCORE.INTER.CONST>
1

>  <SCORE.INTER.POLAR>
0

>  <SCORE.INTER.REPUL>
0

>  <SCORE.INTER.ROT>
3

>  <SCORE.INTER.VDW>
-22.6561

>  <SCORE.INTER.norm>
-0.570244

>  <SCORE.INTRA>
-22.102

>  <SCORE.INTRA.DIHEDRAL>
-50.0266

>  <SCORE.INTRA.DIHEDRAL.0>
53.4367

>  <SCORE.INTRA.POLAR>
0

>  <SCORE.INTRA.POLAR.0>
0

>  <SCORE.INTRA.REPUL>
0

>  <SCORE.INTRA.REPUL.0>
0

>  <SCORE.INTRA.VDW>
2.91129

>  <SCORE.INTRA.VDW.0>
-2.8946

>  <SCORE.INTRA.norm>
-0.88408

>  <SCORE.RESTR>
0

>  <SCORE.RESTR.CAVITY>
0

>  <SCORE.RESTR.norm>
0

>  <SCORE.SYSTEM>
-6.3374

>  <SCORE.SYSTEM.CONST>
0

>  <SCORE.SYSTEM.DIHEDRAL>
9.54737

>  <SCORE.SYSTEM.POLAR>
-4.3506

>  <SCORE.SYSTEM.VDW>
3.68094

>  <SCORE.SYSTEM.norm>
-0.253496

>  <SCORE.heavy>
25

>  <SCORE.norm>
-1.70782

$$$$
F3205-0009
  rDOCK(R)          3D
libRbt.so/2013.1/901 2013/11/27
 25 28  0  0  0  0  0  0  0  0999 V2000
  -19.9318   16.9697  -16.6287 O   0  0  0  0  0  0
  -19.1933   17.9421  -16.5944 C   0  0  0  0  0  0
  -18.2600   18.3215  -17.6992 C   0  0  0  0  0  0
  -17.3412   19.3443  -17.0473 C   0  0  0  0  0  0
  -16.0652   18.7715  -16.3636 C   0  0  0  0  0  0
  -15.1679   19.8856  -15.7766 C   0  0  0  0  0  0
  -14.5843   20.7796  -16.8672 C   0  0  0  0  0  0
  -13.8834   19.9818  -17.9691 C   0  0  0  0  0  0
  -14.2830   18.5374  -18.0799 C   0  0  0  0  0  0
  -15.2339   17.9355  -17.3408 C   0  0  0  0  0  0
  -15.4328   16.5540  -17.3824 N   0  0  0  0  0  0
  -16.3442   15.8416  -16.4570 C   0  0  0  0  0  0
  -17.1101   14.7247  -17.1747 C   0  0  0  0  0  0
  -16.2188   13.8205  -17.8450 O   0  0  0  0  0  0
  -15.4475   14.5342  -18.8217 C   0  0  0  0  0  0
  -14.5903   15.6358  -18.1781 C   0  0  0  0  0  0
  -18.2729   19.9005  -15.9987 C   0  0  0  0  0  0
  -18.2107   21.0545  -15.5989 O   0  0  0  0  0  0
  -19.1516   18.9200  -15.6318 N   0  0  0  0  0  0
  -20.1074   18.9112  -14.5129 C   0  0  0  0  0  0
  -19.3788   18.7899  -13.1570 C   0  0  0  0  0  0
  -18.7584   20.1079  -12.7029 C   0  0  0  0  0  0
  -19.8109   21.2050  -12.6105 C   0  0  0  0  0  0
  -20.5477   21.3835  -13.9315 C   0  0  0  0  0  0
  -21.1224   20.0665  -14.4607 C   0  0  0  0  0  0
  1  2  2  0  0  0
  2  3  1  0  0  0
  2 19  1  0  0  0
  3  4  1  0  0  0
  4  5  1  0  0  0
  4 17  1  0  0  0
  5  6  1  0  0  0
  5 10  1  0  0  0
  6  7  1  0  0  0
  7  8  1  0  0  0
  8  9  1  0  0  0
  9 10  2  0  0  0
 10 11  1  0  0  0
 11 12  1  0  0  0
 11 16  1  0  0  0
 12 13  1  0  0  0
 13 14  1  0  0  0
 14 15  1  0  0  0
 15 16  1  0  0  0
 17 18  2  0  0  0
 17 19  1  0  0  0
 19 20  1  0  0  0
 20 21  1  0  0  0
 20 25  1  0  0  0
 21 22  1  0  0  0
 22 23  1  0  0  0
 23 24  1  0  0  0
 24 25  1  0  0  0
M  END
>  <CHROM.0>
-61.76163558,-72.77982676,72.69572666,64.18090393,168.19876686,61.71172640
-156.47799005,-164.86174806

>  <CHROM.1>
177.85140465,-4.45611728,119.08218427,-17.39232550,18.36860396,-16.19022885
2.32370498,0.46241137,0.34965092

>  <Name>
F3205-0009

>  <RI>
3.01448e+07

>  <Rbt.Current_Directory>
/home/adria/Escritorio/rDock_CMTR_LC/2pxcA_model/inputs_sah

>  <Rbt.Executable>
rbdock ($Id: //depot/dev/client3/rdock/2013.1/src/exe/rbdock.cxx#4 $)

>  <Rbt.Library>
libRbt.so (2013.1, Build901 2013/11/27)

>  <Rbt.Parameter_File>
/home/adria/Escritorio/rDock_2013.1_src/data/scripts/dock.prm

>  <Rbt.Receptor>
sah_rdock.prm

>  <SCORE>
-41.3765

>  <SCORE.INTER>
-13.6928

>  <SCORE.INTER.CONST>
1

>  <SCORE.INTER.POLAR>
0

>  <SCORE.INTER.REPUL>
0

>  <SCORE.INTER.ROT>
3

>  <SCORE.INTER.VDW>
-22.0928

>  <SCORE.INTER.norm>
-0.547712

>  <SCORE.INTRA>
-24.5312

>  <SCORE.INTRA.DIHEDRAL>
-50.0785

>  <SCORE.INTRA.DIHEDRAL.0>
53.4367

>  <SCORE.INTRA.POLAR>
0

>  <SCORE.INTRA.POLAR.0>
0

>  <SCORE.INTRA.REPUL>
0

>  <SCORE.INTRA.REPUL.0>
0

>  <SCORE.INTRA.VDW>
0.508083

>  <SCORE.INTRA.VDW.0>
-2.8946

>  <SCORE.INTRA.norm>
-0.981247

>  <SCORE.RESTR>
0

>  <SCORE.RESTR.CAVITY>
0

>  <SCORE.RESTR.norm>
0

>  <SCORE.SYSTEM>
-3.1525

>  <SCORE.SYSTEM.CONST>
0

>  <SCORE.SYSTEM.DIHEDRAL>
3.46234

>  <SCORE.SYSTEM.POLAR>
-4.04886

>  <SCORE.SYSTEM.REPUL>
0.03814

>  <SCORE.SYSTEM.VDW>
8.69173

>  <SCORE.SYSTEM.norm>
-0.1261

>  <SCORE.heavy>
25

>  <SCORE.norm>
-1.65506

$$$$
F3205-0009
  rDOCK(R)          3D
libRbt.so/2013.1/901 2013/11/27
 25 28  0  0  0  0  0  0  0  0999 V2000
  -19.6719   22.9364  -13.8734 O   0  0  0  0  0  0
  -20.5547   22.2197  -13.4272 C   0  0  0  0  0  0
  -21.9257   22.7029  -13.0771 C   0  0  0  0  0  0
  -22.5026   21.5587  -12.2565 C   0  0  0  0  0  0
  -22.2459   21.6271  -10.7225 C   0  0  0  0  0  0
  -22.7650   20.3697   -9.9876 C   0  0  0  0  0  0
  -24.2850   20.2538  -10.0626 C   0  0  0  0  0  0
  -24.9951   21.5320   -9.6109 C   0  0  0  0  0  0
  -24.1652   22.7842   -9.6481 C   0  0  0  0  0  0
  -22.8996   22.8643  -10.1003 C   0  0  0  0  0  0
  -22.1363   24.0237   -9.9479 N   0  0  0  0  0  0
  -20.7196   24.1186  -10.3703 C   0  0  0  0  0  0
  -20.4109   25.4851  -10.9918 C   0  0  0  0  0  0
  -20.7773   26.5594  -10.1126 O   0  0  0  0  0  0
  -22.1835   26.5008   -9.8345 C   0  0  0  0  0  0
  -22.5743   25.1845   -9.1438 C   0  0  0  0  0  0
  -21.7363   20.4014  -12.8485 C   0  0  0  0  0  0
  -22.1936   19.2696  -12.9224 O   0  0  0  0  0  0
  -20.5195   20.8560  -13.2736 N   0  0  0  0  0  0
  -19.3537   20.0808  -13.7272 C   0  0  0  0  0  0
  -19.6672   18.5693  -13.7615 C   0  0  0  0  0  0
  -20.4917   18.1673  -14.9808 C   0  0  0  0  0  0
  -19.7876   18.5631  -16.2722 C   0  0  0  0  0  0
  -19.4734   20.0532  -16.3019 C   0  0  0  0  0  0
  -18.7101   20.5126  -15.0564 C   0  0  0  0  0  0
  1  2  2  0  0  0
  2  3  1  0  0  0
  2 19  1  0  0  0
  3  4  1  0  0  0
  4  5  1  0  0  0
  4 17  1  0  0  0
  5  6  1  0  0  0
  5 10  1  0  0  0
  6  7  1  0  0  0
  7  8  1  0  0  0
  8  9  1  0  0  0
  9 10  2  0  0  0
 10 11  1  0  0  0
 11 12  1  0  0  0
 11 16  1  0  0  0
 12 13  1  0  0  0
 13 14  1  0  0  0
 14 15  1  0  0  0
 15 16  1  0  0  0
 17 18  2  0  0  0
 17 19  1  0  0  0
 19 20  1  0  0  0
 20 21  1  0  0  0
 20 25  1  0  0  0
 21 22  1  0  0  0
 22 23  1  0  0  0
 23 24  1  0  0  0
 24 25  1  0  0  0
M  END
>  <CHROM.0>
38.07061928,64.89761262,-167.74427577,64.90964397,167.94319860,-59.11924665
-156.43202256,-162.82104679

>  <CHROM.1>
-175.29132083,0.45907201,-166.60798443,-21.44829299,21.91075990,-12.10141380
-1.11786386,0.73591777,0.46777258

>  <Name>
F3205-0009

>  <RI>
3.01448e+07

>  <Rbt.Current_Directory>
/home/adria/Escritorio/rDock_CMTR_LC/2pxcA_model/inputs_sah

>  <Rbt.Executable>
rbdock ($Id: //depot/dev/client3/rdock/2013.1/src/exe/rbdock.cxx#4 $)

>  <Rbt.Library>
libRbt.so (2013.1, Build901 2013/11/27)

>  <Rbt.Parameter_File>
/home/adria/Escritorio/rDock_2013.1_src/data/scripts/dock.prm

>  <Rbt.Receptor>
sah_rdock.prm

>  <SCORE>
-30.2035

>  <SCORE.INTER>
-10.4242

>  <SCORE.INTER.CONST>
1

>  <SCORE.INTER.POLAR>
-0.938083

>  <SCORE.INTER.REPUL>
0

>  <SCORE.INTER.ROT>
3

>  <SCORE.INTER.VDW>
-15.6348

>  <SCORE.INTER.norm>
-0.41697

>  <SCORE.INTRA>
-21.758

>  <SCORE.INTRA.DIHEDRAL>
-49.5273

>  <SCORE.INTRA.DIHEDRAL.0>
53.4367

>  <SCORE.INTRA.POLAR>
0

>  <SCORE.INTRA.POLAR.0>
0

>  <SCORE.INTRA.REPUL>
0

>  <SCORE.INTRA.REPUL.0>
0

>  <SCORE.INTRA.VDW>
3.0057

>  <SCORE.INTRA.VDW.0>
-2.8946

>  <SCORE.INTRA.norm>
-0.870318

>  <SCORE.RESTR>
0

>  <SCORE.RESTR.CAVITY>
0

>  <SCORE.RESTR.norm>
0

>  <SCORE.SYSTEM>
1.97873

>  <SCORE.SYSTEM.CONST>
0

>  <SCORE.SYSTEM.DIHEDRAL>
5.03756

>  <SCORE.SYSTEM.POLAR>
-3.55997

>  <SCORE.SYSTEM.REPUL>
0.129176

>  <SCORE.SYSTEM.VDW>
10.918

>  <SCORE.SYSTEM.norm>
0.0791492

>  <SCORE.heavy>
25

>  <SCORE.norm>
-1.20814

$$$$
F3205-0009
  rDOCK(R)          3D
libRbt.so/2013.1/901 2013/11/27
 25 28  0  0  0  0  0  0  0  0999 V2000
  -19.6866   22.7656  -14.1927 O   0  0  0  0  0  0
  -20.7232   22.3219  -13.7229 C   0  0  0  0  0  0
  -21.8330   23.1738  -13.1952 C   0  0  0  0  0  0
  -22.6960   22.1875  -12.4221 C   0  0  0  0  0  0
  -22.3276   21.9944  -10.9219 C   0  0  0  0  0  0
  -22.8815   20.6684  -10.3512 C   0  0  0  0  0  0
  -24.4074   20.6559  -10.3201 C   0  0  0  0  0  0
  -24.9913   21.8851   -9.6199 C   0  0  0  0  0  0
  -24.0793   23.0759   -9.5295 C   0  0  0  0  0  0
  -22.8462   23.1525  -10.0647 C   0  0  0  0  0  0
  -21.9937   24.2254   -9.7966 N   0  0  0  0  0  0
  -20.6073   24.3033  -10.3128 C   0  0  0  0  0  0
  -20.2473   25.7312  -10.7376 C   0  0  0  0  0  0
  -20.4732   26.6703   -9.6753 O   0  0  0  0  0  0
  -21.8567   26.6508   -9.2964 C   0  0  0  0  0  0
  -22.2900   25.2661   -8.7890 C   0  0  0  0  0  0
  -22.3935   20.9220  -13.1863 C   0  0  0  0  0  0
  -23.2004   20.0115  -13.3107 O   0  0  0  0  0  0
  -21.1266   21.0101  -13.6917 N   0  0  0  0  0  0
  -20.3130   19.9607  -14.3263 C   0  0  0  0  0  0
  -19.7642   18.9690  -13.2777 C   0  0  0  0  0  0
  -20.8145   17.9650  -12.8119 C   0  0  0  0  0  0
  -21.3862   17.1853  -13.9889 C   0  0  0  0  0  0
  -21.9634   18.1166  -15.0470 C   0  0  0  0  0  0
  -20.9629   19.1887  -15.4878 C   0  0  0  0  0  0
  1  2  2  0  0  0
  2  3  1  0  0  0
  2 19  1  0  0  0
  3  4  1  0  0  0
  4  5  1  0  0  0
  4 17  1  0  0  0
  5  6  1  0  0  0
  5 10  1  0  0  0
  6  7  1  0  0  0
  7  8  1  0  0  0
  8  9  1  0  0  0
  9 10  2  0  0  0
 10 11  1  0  0  0
 11 12  1  0  0  0
 11 16  1  0  0  0
 12 13  1  0  0  0
 13 14  1  0  0  0
 14 15  1  0  0  0
 15 16  1  0  0  0
 17 18  2  0  0  0
 17 19  1  0  0  0
 19 20  1  0  0  0
 20 21  1  0  0  0
 20 25  1  0  0  0
 21 22  1  0  0  0
 22 23  1  0  0  0
 23 24  1  0  0  0
 24 25  1  0  0  0
M  END
>  <CHROM.0>
-175.26712116,66.54429401,-165.49588364,65.04353024,167.61029067,60.40295131
-156.33992663,-162.32598511

>  <CHROM.1>
-159.78520651,0.49121011,115.11444393,-21.81369917,21.94085794,-11.92552106
-1.46875417,0.69518503,0.55411833

>  <Name>
F3205-0009

>  <RI>
3.01448e+07

>  <Rbt.Current_Directory>
/home/adria/Escritorio/rDock_CMTR_LC/2pxcA_model/inputs_sah

>  <Rbt.Executable>
rbdock ($Id: //depot/dev/client3/rdock/2013.1/src/exe/rbdock.cxx#4 $)

>  <Rbt.Library>
libRbt.so (2013.1, Build901 2013/11/27)

>  <Rbt.Parameter_File>
/home/adria/Escritorio/rDock_2013.1_src/data/scripts/dock.prm

>  <Rbt.Receptor>
sah_rdock.prm

>  <SCORE>
-36.5444

>  <SCORE.INTER>
-11.7251

>  <SCORE.INTER.CONST>
1

>  <SCORE.INTER.POLAR>
-0.930473

>  <SCORE.INTER.REPUL>
0.0084512

>  <SCORE.INTER.ROT>
3

>  <SCORE.INTER.VDW>
-17.0038

>  <SCORE.INTER.norm>
-0.469005

>  <SCORE.INTRA>
-22.9598

>  <SCORE.INTRA.DIHEDRAL>
-48.3198

>  <SCORE.INTRA.DIHEDRAL.0>
53.4367

>  <SCORE.INTRA.POLAR>
0

>  <SCORE.INTRA.POLAR.0>
0

>  <SCORE.INTRA.REPUL>
0

>  <SCORE.INTRA.REPUL.0>
0

>  <SCORE.INTRA.VDW>
1.2001

>  <SCORE.INTRA.VDW.0>
-2.8946

>  <SCORE.INTRA.norm>
-0.918393

>  <SCORE.RESTR>
0

>  <SCORE.RESTR.CAVITY>
0

>  <SCORE.RESTR.norm>
0

>  <SCORE.SYSTEM>
-1.85942

>  <SCORE.SYSTEM.CONST>
0

>  <SCORE.SYSTEM.DIHEDRAL>
3.32639

>  <SCORE.SYSTEM.POLAR>
-3.62273

>  <SCORE.SYSTEM.VDW>
8.79465

>  <SCORE.SYSTEM.norm>
-0.0743769

>  <SCORE.heavy>
25

>  <SCORE.norm>
-1.46177

$$$$
F3205-0009
  rDOCK(R)          3D
libRbt.so/2013.1/901 2013/11/27
 25 28  0  0  0  0  0  0  0  0999 V2000
  -21.1542   23.1220  -14.0156 O   0  0  0  0  0  0
  -21.9236   22.4562  -13.3397 C   0  0  0  0  0  0
  -23.1011   23.0223  -12.6128 C   0  0  0  0  0  0
  -23.5024   21.9005  -11.6663 C   0  0  0  0  0  0
  -22.8178   21.9150  -10.2682 C   0  0  0  0  0  0
  -23.2545   20.7178   -9.3925 C   0  0  0  0  0  0
  -24.7365   20.7857   -9.0344 C   0  0  0  0  0  0
  -25.1335   22.1328   -8.4262 C   0  0  0  0  0  0
  -24.2049   23.2771   -8.7199 C   0  0  0  0  0  0
  -23.1177   23.2120   -9.5114 C   0  0  0  0  0  0
  -22.2102   24.2694   -9.6026 N   0  0  0  0  0  0
  -20.9712   24.2021  -10.4120 C   0  0  0  0  0  0
  -20.6916   25.5326  -11.1194 C   0  0  0  0  0  0
  -20.6621   26.6275  -10.1912 O   0  0  0  0  0  0
  -21.9277   26.7321   -9.5238 C   0  0  0  0  0  0
  -22.2599   25.4601   -8.7276 C   0  0  0  0  0  0
  -23.0199   20.7085  -12.4558 C   0  0  0  0  0  0
  -23.5591   19.6123  -12.4009 O   0  0  0  0  0  0
  -21.9439   21.0899  -13.2074 N   0  0  0  0  0  0
  -21.0128   20.2487  -13.9763 C   0  0  0  0  0  0
  -20.0597   19.4726  -13.0418 C   0  0  0  0  0  0
  -20.7260   18.2607  -12.3973 C   0  0  0  0  0  0
  -21.2751   17.3115  -13.4544 C   0  0  0  0  0  0
  -22.2417   18.0217  -14.3933 C   0  0  0  0  0  0
  -21.6357   19.2882  -15.0043 C   0  0  0  0  0  0
  1  2  2  0  0  0
  2  3  1  0  0  0
  2 19  1  0  0  0
  3  4  1  0  0  0
  4  5  1  0  0  0
  4 17  1  0  0  0
  5  6  1  0  0  0
  5 10  1  0  0  0
  6  7  1  0  0  0
  7  8  1  0  0  0
  8  9  1  0  0  0
  9 10  2  0  0  0
 10 11  1  0  0  0
 11 12  1  0  0  0
 11 16  1  0  0  0
 12 13  1  0  0  0
 13 14  1  0  0  0
 14 15  1  0  0  0
 15 16  1  0  0  0
 17 18  2  0  0  0
 17 19  1  0  0  0
 19 20  1  0  0  0
 20 21  1  0  0  0
 20 25  1  0  0  0
 21 22  1  0  0  0
 22 23  1  0  0  0
 23 24  1  0  0  0
 24 25  1  0  0  0
M  END
>  <CHROM.0>
-60.86249715,-77.03461172,72.54072639,62.85946577,-29.57773448,-61.10174283
-156.18291133,-159.91991559

>  <CHROM.1>
-178.32941839,0.66833408,117.08250068,-22.26332010,21.99366413,-11.48680904
-1.44689914,0.85782091,0.49585720

>  <Name>
F3205-0009

>  <RI>
3.01448e+07

>  <Rbt.Current_Directory>
/home/adria/Escritorio/rDock_CMTR_LC/2pxcA_model/inputs_sah

>  <Rbt.Executable>
rbdock ($Id: //depot/dev/client3/rdock/2013.1/src/exe/rbdock.cxx#4 $)

>  <Rbt.Library>
libRbt.so (2013.1, Build901 2013/11/27)

>  <Rbt.Parameter_File>
/home/adria/Escritorio/rDock_2013.1_src/data/scripts/dock.prm

>  <Rbt.Receptor>
sah_rdock.prm

>  <SCORE>
-42.1583

>  <SCORE.INTER>
-10.019

>  <SCORE.INTER.CONST>
1

>  <SCORE.INTER.POLAR>
-0.938083

>  <SCORE.INTER.REPUL>
0

>  <SCORE.INTER.ROT>
3

>  <SCORE.INTER.VDW>
-15.2295

>  <SCORE.INTER.norm>
-0.40076

>  <SCORE.INTRA>
-24.1013

>  <SCORE.INTRA.DIHEDRAL>
-49.5606

>  <SCORE.INTRA.DIHEDRAL.0>
53.4367

>  <SCORE.INTRA.POLAR>
0

>  <SCORE.INTRA.POLAR.0>
0

>  <SCORE.INTRA.REPUL>
0

>  <SCORE.INTRA.REPUL.0>
0

>  <SCORE.INTRA.VDW>
0.678974

>  <SCORE.INTRA.VDW.0>
-2.8946

>  <SCORE.INTRA.norm>
-0.964053

>  <SCORE.RESTR>
0

>  <SCORE.RESTR.CAVITY>
0

>  <SCORE.RESTR.norm>
0

>  <SCORE.SYSTEM>
-8.03797

>  <SCORE.SYSTEM.CONST>
0

>  <SCORE.SYSTEM.DIHEDRAL>
7.23367

>  <SCORE.SYSTEM.POLAR>
-4.23597

>  <SCORE.SYSTEM.REPUL>
0.0449307

>  <SCORE.SYSTEM.VDW>
2.52283

>  <SCORE.SYSTEM.norm>
-0.321519

>  <SCORE.heavy>
25

>  <SCORE.norm>
-1.68633

$$$$
F3205-0009
  rDOCK(R)          3D
libRbt.so/2013.1/901 2013/11/27
 25 28  0  0  0  0  0  0  0  0999 V2000
  -19.9180   16.8978  -16.5983 O   0  0  0  0  0  0
  -19.1827   17.8729  -16.5757 C   0  0  0  0  0  0
  -18.2627   18.2514  -17.6919 C   0  0  0  0  0  0
  -17.3405   19.2799  -17.0539 C   0  0  0  0  0  0
  -16.0552   18.7143  -16.3818 C   0  0  0  0  0  0
  -15.1566   19.8337  -15.8071 C   0  0  0  0  0  0
  -14.5880   20.7272  -16.9060 C   0  0  0  0  0  0
  -13.8951   19.9292  -18.0129 C   0  0  0  0  0  0
  -14.2897   18.4829  -18.1157 C   0  0  0  0  0  0
  -15.2305   17.8791  -17.3653 C   0  0  0  0  0  0
  -15.4241   16.4966  -17.4011 N   0  0  0  0  0  0
  -16.3296   15.7840  -16.4701 C   0  0  0  0  0  0
  -17.0933   14.6615  -17.1812 C   0  0  0  0  0  0
  -16.2007   13.7583  -17.8511 O   0  0  0  0  0  0
  -15.4354   14.4715  -18.8329 C   0  0  0  0  0  0
  -14.5805   15.5788  -18.1961 C   0  0  0  0  0  0
  -18.2629   19.8369  -15.9975 C   0  0  0  0  0  0
  -18.2005   20.9927  -15.6028 O   0  0  0  0  0  0
  -19.1341   18.8547  -15.6174 N   0  0  0  0  0  0
  -20.0778   18.8469  -14.4882 C   0  0  0  0  0  0
  -19.3323   18.7737  -13.1380 C   0  0  0  0  0  0
  -18.7404   20.1163  -12.7195 C   0  0  0  0  0  0
  -19.8191   21.1888  -12.6396 C   0  0  0  0  0  0
  -20.5738   21.3197  -13.9561 C   0  0  0  0  0  0
  -21.1207   19.9775  -14.4502 C   0  0  0  0  0  0
  1  2  2  0  0  0
  2  3  1  0  0  0
  2 19  1  0  0  0
  3  4  1  0  0  0
  4  5  1  0  0  0
  4 17  1  0  0  0
  5  6  1  0  0  0
  5 10  1  0  0  0
  6  7  1  0  0  0
  7  8  1  0  0  0
  8  9  1  0  0  0
  9 10  2  0  0  0
 10 11  1  0  0  0
 11 12  1  0  0  0
 11 16  1  0  0  0
 12 13  1  0  0  0
 13 14  1  0  0  0
 14 15  1  0  0  0
 15 16  1  0  0  0
 17 18  2  0  0  0
 17 19  1  0  0  0
 19 20  1  0  0  0
 20 21  1  0  0  0
 20 25  1  0  0  0
 21 22  1  0  0  0
 22 23  1  0  0  0
 23 24  1  0  0  0
 24 25  1  0  0  0
M  END
>  <CHROM.0>
-58.47885015,67.49595557,74.15443719,64.99564687,168.05398182,60.31882419
-157.27900846,-161.01629096

>  <CHROM.1>
177.93262465,-4.05024798,120.68474884,-17.38406052,18.31291717,-16.19888467
2.32442460,0.46838773,0.34536827

>  <Name>
F3205-0009

>  <RI>
3.01448e+07

>  <Rbt.Current_Directory>
/home/adria/Escritorio/rDock_CMTR_LC/2pxcA_model/inputs_sah

>  <Rbt.Executable>
rbdock ($Id: //depot/dev/client3/rdock/2013.1/src/exe/rbdock.cxx#4 $)

>  <Rbt.Library>
libRbt.so (2013.1, Build901 2013/11/27)

>  <Rbt.Parameter_File>
/home/adria/Escritorio/rDock_2013.1_src/data/scripts/dock.prm

>  <Rbt.Receptor>
sah_rdock.prm

>  <SCORE>
-40.8691

>  <SCORE.INTER>
-13.7399

>  <SCORE.INTER.CONST>
1

>  <SCORE.INTER.POLAR>
0

>  <SCORE.INTER.REPUL>
0

>  <SCORE.INTER.ROT>
3

>  <SCORE.INTER.VDW>
-22.1399

>  <SCORE.INTER.norm>
-0.549596

>  <SCORE.INTRA>
-24.5167

>  <SCORE.INTRA.DIHEDRAL>
-50.0431

>  <SCORE.INTRA.DIHEDRAL.0>
53.4367

>  <SCORE.INTRA.POLAR>
0

>  <SCORE.INTRA.POLAR.0>
0

>  <SCORE.INTRA.REPUL>
0

>  <SCORE.INTRA.REPUL.0>
0

>  <SCORE.INTRA.VDW>
0.504812

>  <SCORE.INTRA.VDW.0>
-2.8946

>  <SCORE.INTRA.norm>
-0.980669

>  <SCORE.RESTR>
0

>  <SCORE.RESTR.CAVITY>
0

>  <SCORE.RESTR.norm>
0

>  <SCORE.SYSTEM>
-2.61243

>  <SCORE.SYSTEM.CONST>
0

>  <SCORE.SYSTEM.DIHEDRAL>
3.2002

>  <SCORE.SYSTEM.POLAR>
-3.71962

>  <SCORE.SYSTEM.VDW>
8.43418

>  <SCORE.SYSTEM.norm>
-0.104497

>  <SCORE.heavy>
25

>  <SCORE.norm>
-1.63476

$$$$
F3205-0009
  rDOCK(R)          3D
libRbt.so/2013.1/901 2013/11/27
 25 28  0  0  0  0  0  0  0  0999 V2000
  -21.7641   23.7987  -13.8208 O   0  0  0  0  0  0
  -22.3423   22.9223  -13.1966 C   0  0  0  0  0  0
  -23.5475   23.1602  -12.3443 C   0  0  0  0  0  0
  -23.6595   21.8804  -11.5289 C   0  0  0  0  0  0
  -22.8873   21.8675  -10.1771 C   0  0  0  0  0  0
  -23.3019   20.6785   -9.2798 C   0  0  0  0  0  0
  -24.7556   20.7866   -8.8279 C   0  0  0  0  0  0
  -25.0741   22.1411   -8.1907 C   0  0  0  0  0  0
  -24.1334   23.2601   -8.5386 C   0  0  0  0  0  0
  -23.1010   23.1684   -9.3980 C   0  0  0  0  0  0
  -22.1710   24.1999   -9.5428 N   0  0  0  0  0  0
  -21.0103   24.1173  -10.4597 C   0  0  0  0  0  0
  -20.7504   25.4576  -11.1561 C   0  0  0  0  0  0
  -20.6043   26.5253  -10.2074 O   0  0  0  0  0  0
  -21.8028   26.6499   -9.4287 C   0  0  0  0  0  0
  -22.1054   25.3672   -8.6378 C   0  0  0  0  0  0
  -23.0222   20.9044  -12.4871 C   0  0  0  0  0  0
  -23.3406   19.7250  -12.5445 O   0  0  0  0  0  0
  -22.0960   21.5724  -13.2382 N   0  0  0  0  0  0
  -21.0836   21.0233  -14.1544 C   0  0  0  0  0  0
  -19.6565   21.2505  -13.6105 C   0  0  0  0  0  0
  -19.2850   20.2666  -12.5050 C   0  0  0  0  0  0
  -19.4151   18.8275  -12.9868 C   0  0  0  0  0  0
  -20.8147   18.5407  -13.5151 C   0  0  0  0  0  0
  -21.2560   19.5534  -14.5755 C   0  0  0  0  0  0
  1  2  2  0  0  0
  2  3  1  0  0  0
  2 19  1  0  0  0
  3  4  1  0  0  0
  4  5  1  0  0  0
  4 17  1  0  0  0
  5  6  1  0  0  0
  5 10  1  0  0  0
  6  7  1  0  0  0
  7  8  1  0  0  0
  8  9  1  0  0  0
  9 10  2  0  0  0
 10 11  1  0  0  0
 11 12  1  0  0  0
 11 16  1  0  0  0
 12 13  1  0  0  0
 13 14  1  0  0  0
 14 15  1  0  0  0
 15 16  1  0  0  0
 17 18  2  0  0  0
 17 19  1  0  0  0
 19 20  1  0  0  0
 20 21  1  0  0  0
 20 25  1  0  0  0
 21 22  1  0  0  0
 22 23  1  0  0  0
 23 24  1  0  0  0
 24 25  1  0  0  0
M  END
>  <CHROM.0>
-177.61195403,-73.39372055,-167.33522712,64.47554443,35.40987398,179.86547010
-158.54937846,-160.78148633

>  <CHROM.1>
167.28145195,2.52751042,77.50051140,-22.09370675,22.32656753,-11.38564661
-1.22375015,0.78352163,0.47140834

>  <Name>
F3205-0009

>  <RI>
3.01448e+07

>  <Rbt.Current_Directory>
/home/adria/Escritorio/rDock_CMTR_LC/2pxcA_model/inputs_sah

>  <Rbt.Executable>
rbdock ($Id: //depot/dev/client3/rdock/2013.1/src/exe/rbdock.cxx#4 $)

>  <Rbt.Library>
libRbt.so (2013.1, Build901 2013/11/27)

>  <Rbt.Parameter_File>
/home/adria/Escritorio/rDock_2013.1_src/data/scripts/dock.prm

>  <Rbt.Receptor>
sah_rdock.prm

>  <SCORE>
-28.9668

>  <SCORE.INTER>
-9.9582

>  <SCORE.INTER.CONST>
1

>  <SCORE.INTER.POLAR>
-0.938083

>  <SCORE.INTER.REPUL>
0

>  <SCORE.INTER.ROT>
3

>  <SCORE.INTER.VDW>
-15.1687

>  <SCORE.INTER.norm>
-0.398328

>  <SCORE.INTRA>
-23.6785

>  <SCORE.INTRA.DIHEDRAL>
-48.8115

>  <SCORE.INTRA.DIHEDRAL.0>
53.4367

>  <SCORE.INTRA.POLAR>
0

>  <SCORE.INTRA.POLAR.0>
0

>  <SCORE.INTRA.REPUL>
0

>  <SCORE.INTRA.REPUL.0>
0

>  <SCORE.INTRA.VDW>
0.727264

>  <SCORE.INTRA.VDW.0>
-2.8946

>  <SCORE.INTRA.norm>
-0.94714

>  <SCORE.RESTR>
0

>  <SCORE.RESTR.CAVITY>
0

>  <SCORE.RESTR.norm>
0

>  <SCORE.SYSTEM>
4.6699

>  <SCORE.SYSTEM.CONST>
0

>  <SCORE.SYSTEM.DIHEDRAL>
5.49261

>  <SCORE.SYSTEM.POLAR>
-3.6579

>  <SCORE.SYSTEM.REPUL>
0.039231

>  <SCORE.SYSTEM.VDW>
14.1643

>  <SCORE.SYSTEM.norm>
0.186796

>  <SCORE.heavy>
25

>  <SCORE.norm>
-1.15867

$$$$
F3205-0009
  rDOCK(R)          3D
libRbt.so/2013.1/901 2013/11/27
 25 28  0  0  0  0  0  0  0  0999 V2000
  -19.9078   16.9398  -16.7025 O   0  0  0  0  0  0
  -19.1717   17.9130  -16.6472 C   0  0  0  0  0  0
  -18.2310   18.3120  -17.7387 C   0  0  0  0  0  0
  -17.3193   19.3261  -17.0636 C   0  0  0  0  0  0
  -16.0472   18.7450  -16.3796 C   0  0  0  0  0  0
  -15.1565   19.8514  -15.7686 C   0  0  0  0  0  0
  -14.5667   20.7636  -16.8407 C   0  0  0  0  0  0
  -13.8561   19.9845  -17.9498 C   0  0  0  0  0  0
  -14.2520   18.5413  -18.0862 C   0  0  0  0  0  0
  -15.2071   17.9261  -17.3637 C   0  0  0  0  0  0
  -15.4029   16.5450  -17.4284 N   0  0  0  0  0  0
  -16.3272   15.8178  -16.5276 C   0  0  0  0  0  0
  -17.0800   14.7103  -17.2732 C   0  0  0  0  0  0
  -16.1769   13.8173  -17.9428 O   0  0  0  0  0  0
  -15.3919   14.5464  -18.8969 C   0  0  0  0  0  0
  -14.5467   15.6397  -18.2242 C   0  0  0  0  0  0
  -18.2601   19.8635  -16.0133 C   0  0  0  0  0  0
  -18.2033   21.0111  -15.5946 O   0  0  0  0  0  0
  -19.1393   18.8754  -15.6688 N   0  0  0  0  0  0
  -20.1035   18.8468  -14.5573 C   0  0  0  0  0  0
  -19.3827   18.7505  -13.1952 C   0  0  0  0  0  0
  -18.8003   20.0860  -12.7424 C   0  0  0  0  0  0
  -19.8816   21.1559  -12.6632 C   0  0  0  0  0  0
  -20.6123   21.3094  -13.9908 C   0  0  0  0  0  0
  -21.1484   19.9756  -14.5184 C   0  0  0  0  0  0
  1  2  2  0  0  0
  2  3  1  0  0  0
  2 19  1  0  0  0
  3  4  1  0  0  0
  4  5  1  0  0  0
  4 17  1  0  0  0
  5  6  1  0  0  0
  5 10  1  0  0  0
  6  7  1  0  0  0
  7  8  1  0  0  0
  8  9  1  0  0  0
  9 10  2  0  0  0
 10 11  1  0  0  0
 11 12  1  0  0  0
 11 16  1  0  0  0
 12 13  1  0  0  0
 13 14  1  0  0  0
 14 15  1  0  0  0
 15 16  1  0  0  0
 17 18  2  0  0  0
 17 19  1  0  0  0
 19 20  1  0  0  0
 20 21  1  0  0  0
 20 25  1  0  0  0
 21 22  1  0  0  0
 22 23  1  0  0  0
 23 24  1  0  0  0
 24 25  1  0  0  0
M  END
>  <CHROM.0>
-61.55344400,-74.06217353,72.86181841,65.60076586,-31.15912323,60.22112778
-156.37750437,-157.28570932

>  <CHROM.1>
177.83040770,-3.99094989,120.88355213,-17.38131284,18.34197983,-16.22875869
2.33011484,0.45057707,0.36173441

>  <Name>
F3205-0009

>  <RI>
3.01448e+07

>  <Rbt.Current_Directory>
/home/adria/Escritorio/rDock_CMTR_LC/2pxcA_model/inputs_sah

>  <Rbt.Executable>
rbdock ($Id: //depot/dev/client3/rdock/2013.1/src/exe/rbdock.cxx#4 $)

>  <Rbt.Library>
libRbt.so (2013.1, Build901 2013/11/27)

>  <Rbt.Parameter_File>
/home/adria/Escritorio/rDock_2013.1_src/data/scripts/dock.prm

>  <Rbt.Receptor>
sah_rdock.prm

>  <SCORE>
-46.2107

>  <SCORE.INTER>
-13.6904

>  <SCORE.INTER.CONST>
1

>  <SCORE.INTER.POLAR>
0

>  <SCORE.INTER.REPUL>
0.0103004

>  <SCORE.INTER.ROT>
3

>  <SCORE.INTER.VDW>
-22.1419

>  <SCORE.INTER.norm>
-0.547617

>  <SCORE.INTRA>
-24.5153

>  <SCORE.INTRA.DIHEDRAL>
-50.038

>  <SCORE.INTRA.DIHEDRAL.0>
53.4367

>  <SCORE.INTRA.POLAR>
0

>  <SCORE.INTRA.POLAR.0>
0

>  <SCORE.INTRA.REPUL>
0

>  <SCORE.INTRA.REPUL.0>
0

>  <SCORE.INTRA.VDW>
0.503718

>  <SCORE.INTRA.VDW.0>
-2.8946

>  <SCORE.INTRA.norm>
-0.980612

>  <SCORE.RESTR>
0

>  <SCORE.RESTR.CAVITY>
0

>  <SCORE.RESTR.norm>
0

>  <SCORE.SYSTEM>
-8.00492

>  <SCORE.SYSTEM.CONST>
0

>  <SCORE.SYSTEM.DIHEDRAL>
6.79888

>  <SCORE.SYSTEM.POLAR>
-4.1686

>  <SCORE.SYSTEM.REPUL>
0.0403769

>  <SCORE.SYSTEM.VDW>
2.56701

>  <SCORE.SYSTEM.norm>
-0.320197

>  <SCORE.heavy>
25

>  <SCORE.norm>
-1.84843

$$$$
F3205-0009
  rDOCK(R)          3D
libRbt.so/2013.1/901 2013/11/27
 25 28  0  0  0  0  0  0  0  0999 V2000
  -19.9832   18.9003  -12.2463 O   0  0  0  0  0  0
  -20.0699   20.0422  -12.6715 C   0  0  0  0  0  0
  -19.9300   21.2633  -11.8201 C   0  0  0  0  0  0
  -20.4622   22.3759  -12.7114 C   0  0  0  0  0  0
  -21.9900   22.6567  -12.6069 C   0  0  0  0  0  0
  -22.3873   23.9842  -13.2930 C   0  0  0  0  0  0
  -21.7808   25.1934  -12.5865 C   0  0  0  0  0  0
  -22.0680   25.2014  -11.0833 C   0  0  0  0  0  0
  -22.4296   23.8717  -10.4839 C   0  0  0  0  0  0
  -22.4525   22.7006  -11.1478 C   0  0  0  0  0  0
  -22.9600   21.5363  -10.5676 N   0  0  0  0  0  0
  -23.1862   20.2867  -11.3305 C   0  0  0  0  0  0
  -22.8085   19.0512  -10.5061 C   0  0  0  0  0  0
  -23.4878   19.0329   -9.2414 O   0  0  0  0  0  0
  -23.1370   20.2006   -8.4853 C   0  0  0  0  0  0
  -23.5442   21.4934   -9.2100 C   0  0  0  0  0  0
  -20.1438   21.7974  -14.0682 C   0  0  0  0  0  0
  -19.8813   22.4901  -15.0413 O   0  0  0  0  0  0
  -20.1865   20.4341  -13.9820 N   0  0  0  0  0  0
  -20.1490   19.4408  -15.0672 C   0  0  0  0  0  0
  -19.6819   20.0797  -16.3930 C   0  0  0  0  0  0
  -18.1715   20.2899  -16.4443 C   0  0  0  0  0  0
  -17.4287   18.9774  -16.2308 C   0  0  0  0  0  0
  -17.8359   18.3128  -14.9221 C   0  0  0  0  0  0
  -19.3535   18.1515  -14.7981 C   0  0  0  0  0  0
  1  2  2  0  0  0
  2  3  1  0  0  0
  2 19  1  0  0  0
  3  4  1  0  0  0
  4  5  1  0  0  0
  4 17  1  0  0  0
  5  6  1  0  0  0
  5 10  1  0  0  0
  6  7  1  0  0  0
  7  8  1  0  0  0
  8  9  1  0  0  0
  9 10  2  0  0  0
 10 11  1  0  0  0
 11 12  1  0  0  0
 11 16  1  0  0  0
 12 13  1  0  0  0
 13 14  1  0  0  0
 14 15  1  0  0  0
 15 16  1  0  0  0
 17 18  2  0  0  0
 17 19  1  0  0  0
 19 20  1  0  0  0
 20 21  1  0  0  0
 20 25  1  0  0  0
 21 22  1  0  0  0
 22 23  1  0  0  0
 23 24  1  0  0  0
 24 25  1  0  0  0
M  END
>  <CHROM.0>
-179.84945426,67.61130407,-47.07704389,63.62664032,-31.10593222,-177.84731635
-48.65413486,-162.65554357

>  <CHROM.1>
167.28435238,-5.61606426,-155.11941048,-21.02149428,21.07565170,-12.66941105
0.13249597,-0.93759872,2.87291346

>  <Name>
F3205-0009

>  <RI>
3.01448e+07

>  <Rbt.Current_Directory>
/home/adria/Escritorio/rDock_CMTR_LC/2pxcA_model/inputs_sah

>  <Rbt.Executable>
rbdock ($Id: //depot/dev/client3/rdock/2013.1/src/exe/rbdock.cxx#4 $)

>  <Rbt.Library>
libRbt.so (2013.1, Build901 2013/11/27)

>  <Rbt.Parameter_File>
/home/adria/Escritorio/rDock_2013.1_src/data/scripts/dock.prm

>  <Rbt.Receptor>
sah_rdock.prm

>  <SCORE>
-40.3218

>  <SCORE.INTER>
-11.8642

>  <SCORE.INTER.CONST>
1

>  <SCORE.INTER.POLAR>
-0.436628

>  <SCORE.INTER.REPUL>
1.64174e-06

>  <SCORE.INTER.ROT>
3

>  <SCORE.INTER.VDW>
-18.7797

>  <SCORE.INTER.norm>
-0.474569

>  <SCORE.INTRA>
-22.189

>  <SCORE.INTRA.DIHEDRAL>
-49.971

>  <SCORE.INTRA.DIHEDRAL.0>
53.4367

>  <SCORE.INTRA.POLAR>
0

>  <SCORE.INTRA.POLAR.0>
0

>  <SCORE.INTRA.REPUL>
0

>  <SCORE.INTRA.REPUL.0>
0

>  <SCORE.INTRA.VDW>
2.79653

>  <SCORE.INTRA.VDW.0>
-2.8946

>  <SCORE.INTRA.norm>
-0.88756

>  <SCORE.RESTR>
0

>  <SCORE.RESTR.CAVITY>
0

>  <SCORE.RESTR.norm>
0

>  <SCORE.SYSTEM>
-6.26856

>  <SCORE.SYSTEM.CONST>
0

>  <SCORE.SYSTEM.DIHEDRAL>
4.88206

>  <SCORE.SYSTEM.POLAR>
-3.30458

>  <SCORE.SYSTEM.VDW>
2.526

>  <SCORE.SYSTEM.norm>
-0.250742

>  <SCORE.heavy>
25

>  <SCORE.norm>
-1.61287

$$$$
F3205-0009
  rDOCK(R)          3D
libRbt.so/2013.1/901 2013/11/27
 25 28  0  0  0  0  0  0  0  0999 V2000
  -19.9819   23.8731  -12.1385 O   0  0  0  0  0  0
  -20.6927   22.9229  -11.8492 C   0  0  0  0  0  0
  -20.2076   21.5109  -11.7682 C   0  0  0  0  0  0
  -21.4939   20.6986  -11.7366 C   0  0  0  0  0  0
  -22.0598   20.2701  -13.1222 C   0  0  0  0  0  0
  -23.5233   19.7800  -13.0282 C   0  0  0  0  0  0
  -23.6418   18.4956  -12.2123 C   0  0  0  0  0  0
  -22.6869   17.4017  -12.6956 C   0  0  0  0  0  0
  -21.5084   17.8760  -13.4982 C   0  0  0  0  0  0
  -21.2114   19.1638  -13.7556 C   0  0  0  0  0  0
  -20.1978   19.5205  -14.6474 N   0  0  0  0  0  0
  -19.9636   20.9157  -15.0870 C   0  0  0  0  0  0
  -18.4664   21.2246  -15.1962 C   0  0  0  0  0  0
  -17.7933   20.2799  -16.0423 O   0  0  0  0  0  0
  -17.9401   18.9574  -15.5060 C   0  0  0  0  0  0
  -19.4158   18.5352  -15.4244 C   0  0  0  0  0  0
  -22.4209   21.7035  -11.0981 C   0  0  0  0  0  0
  -23.3648   21.3814  -10.3905 O   0  0  0  0  0  0
  -22.0012   22.9598  -11.4354 N   0  0  0  0  0  0
  -22.6857   24.2461  -11.2290 C   0  0  0  0  0  0
  -23.2191   24.8149  -12.5617 C   0  0  0  0  0  0
  -24.5029   24.1303  -13.0213 C   0  0  0  0  0  0
  -25.5900   24.2365  -11.9597 C   0  0  0  0  0  0
  -25.1241   23.6677  -10.6257 C   0  0  0  0  0  0
  -23.7966   24.2759  -10.1647 C   0  0  0  0  0  0
  1  2  2  0  0  0
  2  3  1  0  0  0
  2 19  1  0  0  0
  3  4  1  0  0  0
  4  5  1  0  0  0
  4 17  1  0  0  0
  5  6  1  0  0  0
  5 10  1  0  0  0
  6  7  1  0  0  0
  7  8  1  0  0  0
  8  9  1  0  0  0
  9 10  2  0  0  0
 10 11  1  0  0  0
 11 12  1  0  0  0
 11 16  1  0  0  0
 12 13  1  0  0  0
 13 14  1  0  0  0
 14 15  1  0  0  0
 15 16  1  0  0  0
 17 18  2  0  0  0
 17 19  1  0  0  0
 19 20  1  0  0  0
 20 21  1  0  0  0
 20 25  1  0  0  0
 21 22  1  0  0  0
 22 23  1  0  0  0
 23 24  1  0  0  0
 24 25  1  0  0  0
M  END
>  <CHROM.0>
-175.33631865,-168.58759983,-47.34144302,63.64018026,-29.69176458,64.32256768
83.63350188,-162.80927796

>  <CHROM.1>
-165.27446992,-4.48508860,82.46738686,-21.71934571,21.32994305,-12.82337294
-2.37470948,-0.53708073,-2.94043253

>  <Name>
F3205-0009

>  <RI>
3.01448e+07

>  <Rbt.Current_Directory>
/home/adria/Escritorio/rDock_CMTR_LC/2pxcA_model/inputs_sah

>  <Rbt.Executable>
rbdock ($Id: //depot/dev/client3/rdock/2013.1/src/exe/rbdock.cxx#4 $)

>  <Rbt.Library>
libRbt.so (2013.1, Build901 2013/11/27)

>  <Rbt.Parameter_File>
/home/adria/Escritorio/rDock_2013.1_src/data/scripts/dock.prm

>  <Rbt.Receptor>
sah_rdock.prm

>  <SCORE>
-37.6623

>  <SCORE.INTER>
-8.23991

>  <SCORE.INTER.CONST>
1

>  <SCORE.INTER.POLAR>
0

>  <SCORE.INTER.REPUL>
0

>  <SCORE.INTER.ROT>
3

>  <SCORE.INTER.VDW>
-16.6399

>  <SCORE.INTER.norm>
-0.329596

>  <SCORE.INTRA>
-23.553

>  <SCORE.INTRA.DIHEDRAL>
-49.5434

>  <SCORE.INTRA.DIHEDRAL.0>
53.4367

>  <SCORE.INTRA.POLAR>
0

>  <SCORE.INTRA.POLAR.0>
0

>  <SCORE.INTRA.REPUL>
0

>  <SCORE.INTRA.REPUL.0>
0

>  <SCORE.INTRA.VDW>
1.21863

>  <SCORE.INTRA.VDW.0>
-2.8946

>  <SCORE.INTRA.norm>
-0.942122

>  <SCORE.RESTR>
0

>  <SCORE.RESTR.CAVITY>
0

>  <SCORE.RESTR.norm>
0

>  <SCORE.SYSTEM>
-5.86935

>  <SCORE.SYSTEM.CONST>
0

>  <SCORE.SYSTEM.DIHEDRAL>
6.51149

>  <SCORE.SYSTEM.POLAR>
-3.66738

>  <SCORE.SYSTEM.VDW>
3.34401

>  <SCORE.SYSTEM.norm>
-0.234774

>  <SCORE.heavy>
25

>  <SCORE.norm>
-1.50649

$$$$
F3205-0009
  rDOCK(R)          3D
libRbt.so/2013.1/901 2013/11/27
 25 28  0  0  0  0  0  0  0  0999 V2000
  -16.0918   16.1411  -18.8392 O   0  0  0  0  0  0
  -16.9673   16.3241  -18.0073 C   0  0  0  0  0  0
  -17.8208   17.5503  -17.9489 C   0  0  0  0  0  0
  -18.4727   17.4597  -16.5769 C   0  0  0  0  0  0
  -17.6897   18.1271  -15.4084 C   0  0  0  0  0  0
  -18.5937   18.4074  -14.1857 C   0  0  0  0  0  0
  -19.6676   19.4458  -14.4983 C   0  0  0  0  0  0
  -19.0887   20.7259  -15.1053 C   0  0  0  0  0  0
  -17.7296   20.5909  -15.7321 C   0  0  0  0  0  0
  -17.0388   19.4412  -15.8493 C   0  0  0  0  0  0
  -15.7139   19.4211  -16.2899 N   0  0  0  0  0  0
  -14.9175   18.1765  -16.3961 C   0  0  0  0  0  0
  -14.0310   18.1841  -17.6464 C   0  0  0  0  0  0
  -13.1999   19.3537  -17.6967 O   0  0  0  0  0  0
  -14.0197   20.5308  -17.7215 C   0  0  0  0  0  0
  -14.8976   20.6414  -16.4647 C   0  0  0  0  0  0
  -18.4826   15.9622  -16.3917 C   0  0  0  0  0  0
  -19.3415   15.3779  -15.7463 O   0  0  0  0  0  0
  -17.4185   15.4323  -17.0662 N   0  0  0  0  0  0
  -16.8903   14.0595  -17.0209 C   0  0  0  0  0  0
  -16.2588   13.7492  -15.6464 C   0  0  0  0  0  0
  -17.3023   13.4535  -14.5732 C   0  0  0  0  0  0
  -18.1989   12.2937  -14.9866 C   0  0  0  0  0  0
  -18.8674   12.5570  -16.3297 C   0  0  0  0  0  0
  -17.8587   12.9319  -17.4190 C   0  0  0  0  0  0
  1  2  2  0  0  0
  2  3  1  0  0  0
  2 19  1  0  0  0
  3  4  1  0  0  0
  4  5  1  0  0  0
  4 17  1  0  0  0
  5  6  1  0  0  0
  5 10  1  0  0  0
  6  7  1  0  0  0
  7  8  1  0  0  0
  8  9  1  0  0  0
  9 10  2  0  0  0
 10 11  1  0  0  0
 11 12  1  0  0  0
 11 16  1  0  0  0
 12 13  1  0  0  0
 13 14  1  0  0  0
 14 15  1  0  0  0
 15 16  1  0  0  0
 17 18  2  0  0  0
 17 19  1  0  0  0
 19 20  1  0  0  0
 20 21  1  0  0  0
 20 25  1  0  0  0
 21 22  1  0  0  0
 22 23  1  0  0  0
 23 24  1  0  0  0
 24 25  1  0  0  0
M  END
>  <CHROM.0>
-58.30129888,67.54854227,-9.52325406,66.33198803,-31.24194250,178.37823433
-156.31293211,-162.07749558

>  <CHROM.1>
161.02560299,2.17255110,121.74653438,-17.03295250,17.04266300,-16.39556914
-1.96213249,0.52935207,0.13699180

>  <Name>
F3205-0009

>  <RI>
3.01448e+07

>  <Rbt.Current_Directory>
/home/adria/Escritorio/rDock_CMTR_LC/2pxcA_model/inputs_sah

>  <Rbt.Executable>
rbdock ($Id: //depot/dev/client3/rdock/2013.1/src/exe/rbdock.cxx#4 $)

>  <Rbt.Library>
libRbt.so (2013.1, Build901 2013/11/27)

>  <Rbt.Parameter_File>
/home/adria/Escritorio/rDock_2013.1_src/data/scripts/dock.prm

>  <Rbt.Receptor>
sah_rdock.prm

>  <SCORE>
-45.9066

>  <SCORE.INTER>
-15.1736

>  <SCORE.INTER.CONST>
1

>  <SCORE.INTER.POLAR>
-0.874241

>  <SCORE.INTER.REPUL>
0

>  <SCORE.INTER.ROT>
3

>  <SCORE.INTER.VDW>
-20.6012

>  <SCORE.INTER.norm>
-0.606944

>  <SCORE.INTRA>
-23.5775

>  <SCORE.INTRA.DIHEDRAL>
-48.1791

>  <SCORE.INTRA.DIHEDRAL.0>
53.4367

>  <SCORE.INTRA.POLAR>
0

>  <SCORE.INTRA.POLAR.0>
0

>  <SCORE.INTRA.REPUL>
0

>  <SCORE.INTRA.REPUL.0>
0

>  <SCORE.INTRA.VDW>
0.512064

>  <SCORE.INTRA.VDW.0>
-2.8946

>  <SCORE.INTRA.norm>
-0.9431

>  <SCORE.RESTR>
0

>  <SCORE.RESTR.CAVITY>
0

>  <SCORE.RESTR.norm>
0

>  <SCORE.SYSTEM>
-7.15549

>  <SCORE.SYSTEM.CONST>
0

>  <SCORE.SYSTEM.DIHEDRAL>
8.91155

>  <SCORE.SYSTEM.POLAR>
-4.35561

>  <SCORE.SYSTEM.VDW>
3.1978

>  <SCORE.SYSTEM.norm>
-0.28622

>  <SCORE.heavy>
25

>  <SCORE.norm>
-1.83626

$$$$
F3205-0009
  rDOCK(R)          3D
libRbt.so/2013.1/901 2013/11/27
 25 28  0  0  0  0  0  0  0  0999 V2000
  -19.2045   17.1637  -13.8572 O   0  0  0  0  0  0
  -18.9837   18.3488  -14.0544 C   0  0  0  0  0  0
  -18.9693   19.3863  -12.9778 C   0  0  0  0  0  0
  -19.0112   20.6960  -13.7513 C   0  0  0  0  0  0
  -20.4305   21.2528  -14.0662 C   0  0  0  0  0  0
  -20.6313   22.6834  -13.5148 C   0  0  0  0  0  0
  -20.5957   22.7152  -11.9893 C   0  0  0  0  0  0
  -21.5543   21.7032  -11.3575 C   0  0  0  0  0  0
  -21.9745   20.5650  -12.2442 C   0  0  0  0  0  0
  -21.5261   20.3482  -13.4951 C   0  0  0  0  0  0
  -22.0866   19.3688  -14.3176 N   0  0  0  0  0  0
  -21.7216   19.2074  -15.7443 C   0  0  0  0  0  0
  -21.6385   17.7283  -16.1371 C   0  0  0  0  0  0
  -22.8499   17.0282  -15.8152 O   0  0  0  0  0  0
  -23.0936   17.1040  -14.4034 C   0  0  0  0  0  0
  -23.2598   18.5568  -13.9301 C   0  0  0  0  0  0
  -18.3396   20.2639  -15.0317 C   0  0  0  0  0  0
  -17.6720   21.0221  -15.7209 O   0  0  0  0  0  0
  -18.5980   18.9370  -15.2333 N   0  0  0  0  0  0
  -18.3370   18.1190  -16.4286 C   0  0  0  0  0  0
  -17.6554   18.9508  -17.5366 C   0  0  0  0  0  0
  -16.1671   19.1665  -17.2784 C   0  0  0  0  0  0
  -15.4392   17.8369  -17.1297 C   0  0  0  0  0  0
  -16.0580   16.9822  -16.0312 C   0  0  0  0  0  0
  -17.5679   16.8039  -16.2126 C   0  0  0  0  0  0
  1  2  2  0  0  0
  2  3  1  0  0  0
  2 19  1  0  0  0
  3  4  1  0  0  0
  4  5  1  0  0  0
  4 17  1  0  0  0
  5  6  1  0  0  0
  5 10  1  0  0  0
  6  7  1  0  0  0
  7  8  1  0  0  0
  8  9  1  0  0  0
  9 10  2  0  0  0
 10 11  1  0  0  0
 11 12  1  0  0  0
 11 16  1  0  0  0
 12 13  1  0  0  0
 13 14  1  0  0  0
 14 15  1  0  0  0
 15 16  1  0  0  0
 17 18  2  0  0  0
 17 19  1  0  0  0
 19 20  1  0  0  0
 20 21  1  0  0  0
 20 25  1  0  0  0
 21 22  1  0  0  0
 22 23  1  0  0  0
 23 24  1  0  0  0
 24 25  1  0  0  0
M  END
>  <CHROM.0>
-62.23764855,-74.75545330,71.69651488,64.30881284,-31.24435954,59.66216878
-36.46628758,-164.96203340

>  <CHROM.1>
123.01827490,-3.31408980,-168.72796289,-19.73720637,19.24582178,-14.75361946
0.62688848,-0.31171811,-2.56641328

>  <Name>
F3205-0009

>  <RI>
3.01448e+07

>  <Rbt.Current_Directory>
/home/adria/Escritorio/rDock_CMTR_LC/2pxcA_model/inputs_sah

>  <Rbt.Executable>
rbdock ($Id: //depot/dev/client3/rdock/2013.1/src/exe/rbdock.cxx#4 $)

>  <Rbt.Library>
libRbt.so (2013.1, Build901 2013/11/27)

>  <Rbt.Parameter_File>
/home/adria/Escritorio/rDock_2013.1_src/data/scripts/dock.prm

>  <Rbt.Receptor>
sah_rdock.prm

>  <SCORE>
-42.0376

>  <SCORE.INTER>
-13.6967

>  <SCORE.INTER.CONST>
1

>  <SCORE.INTER.POLAR>
-0.824621

>  <SCORE.INTER.REPUL>
0

>  <SCORE.INTER.ROT>
3

>  <SCORE.INTER.VDW>
-19.293

>  <SCORE.INTER.norm>
-0.547867

>  <SCORE.INTRA>
-20.466

>  <SCORE.INTRA.DIHEDRAL>
-45.6034

>  <SCORE.INTRA.DIHEDRAL.0>
53.4367

>  <SCORE.INTRA.POLAR>
0

>  <SCORE.INTRA.POLAR.0>
0

>  <SCORE.INTRA.REPUL>
0

>  <SCORE.INTRA.REPUL.0>
0

>  <SCORE.INTRA.VDW>
2.33564

>  <SCORE.INTRA.VDW.0>
-2.8946

>  <SCORE.INTRA.norm>
-0.818641

>  <SCORE.RESTR>
0

>  <SCORE.RESTR.CAVITY>
0

>  <SCORE.RESTR.norm>
0

>  <SCORE.SYSTEM>
-7.87486

>  <SCORE.SYSTEM.CONST>
0

>  <SCORE.SYSTEM.DIHEDRAL>
6.3562

>  <SCORE.SYSTEM.POLAR>
-4.08697

>  <SCORE.SYSTEM.REPUL>
0.0415186

>  <SCORE.SYSTEM.VDW>
2.63513

>  <SCORE.SYSTEM.norm>
-0.314995

>  <SCORE.heavy>
25

>  <SCORE.norm>
-1.6815

$$$$
F3205-0009
  rDOCK(R)          3D
libRbt.so/2013.1/901 2013/11/27
 25 28  0  0  0  0  0  0  0  0999 V2000
  -19.7013   16.5166  -15.5661 O   0  0  0  0  0  0
  -18.9127   17.4072  -15.8436 C   0  0  0  0  0  0
  -18.3441   17.6240  -17.2094 C   0  0  0  0  0  0
  -17.1875   18.5809  -16.9607 C   0  0  0  0  0  0
  -15.8127   17.9181  -16.6534 C   0  0  0  0  0  0
  -14.7383   18.9585  -16.2609 C   0  0  0  0  0  0
  -14.4018   19.8935  -17.4194 C   0  0  0  0  0  0
  -14.0450   19.1370  -18.7010 C   0  0  0  0  0  0
  -14.5361   17.7188  -18.7765 C   0  0  0  0  0  0
  -15.3005   17.1109  -17.8497 C   0  0  0  0  0  0
  -15.5769   15.7433  -17.9065 N   0  0  0  0  0  0
  -15.2363   14.8989  -19.0751 C   0  0  0  0  0  0
  -14.7336   13.5178  -18.6404 C   0  0  0  0  0  0
  -15.6692   12.8665  -17.7678 O   0  0  0  0  0  0
  -15.8693   13.6616  -16.5905 C   0  0  0  0  0  0
  -16.4404   15.0480  -16.9283 C   0  0  0  0  0  0
  -17.6960   19.2898  -15.7296 C   0  0  0  0  0  0
  -17.4181   20.4519  -15.4692 O   0  0  0  0  0  0
  -18.4925   18.4286  -15.0282 N   0  0  0  0  0  0
  -19.0477   18.5831  -13.6741 C   0  0  0  0  0  0
  -18.7328   19.9804  -13.0975 C   0  0  0  0  0  0
  -19.6395   21.0685  -13.6647 C   0  0  0  0  0  0
  -21.1066   20.7426  -13.4169 C   0  0  0  0  0  0
  -21.4790   19.3800  -13.9868 C   0  0  0  0  0  0
  -20.5440   18.2695  -13.4998 C   0  0  0  0  0  0
  1  2  2  0  0  0
  2  3  1  0  0  0
  2 19  1  0  0  0
  3  4  1  0  0  0
  4  5  1  0  0  0
  4 17  1  0  0  0
  5  6  1  0  0  0
  5 10  1  0  0  0
  6  7  1  0  0  0
  7  8  1  0  0  0
  8  9  1  0  0  0
  9 10  2  0  0  0
 10 11  1  0  0  0
 11 12  1  0  0  0
 11 16  1  0  0  0
 12 13  1  0  0  0
 13 14  1  0  0  0
 14 15  1  0  0  0
 15 16  1  0  0  0
 17 18  2  0  0  0
 17 19  1  0  0  0
 19 20  1  0  0  0
 20 21  1  0  0  0
 20 25  1  0  0  0
 21 22  1  0  0  0
 22 23  1  0  0  0
 23 24  1  0  0  0
 24 25  1  0  0  0
M  END
>  <CHROM.0>
-176.82728786,-71.73201969,74.02080060,65.89571562,-30.66908816,-59.40249151
-36.38584342,-161.58834272

>  <CHROM.1>
-173.63515483,174.23546858,-164.53719743,-17.23823316,17.68352014,-16.22164134
2.40945583,0.59070294,0.20184302

>  <Name>
F3205-0009

>  <RI>
3.01448e+07

>  <Rbt.Current_Directory>
/home/adria/Escritorio/rDock_CMTR_LC/2pxcA_model/inputs_sah

>  <Rbt.Executable>
rbdock ($Id: //depot/dev/client3/rdock/2013.1/src/exe/rbdock.cxx#4 $)

>  <Rbt.Library>
libRbt.so (2013.1, Build901 2013/11/27)

>  <Rbt.Parameter_File>
/home/adria/Escritorio/rDock_2013.1_src/data/scripts/dock.prm

>  <Rbt.Receptor>
sah_rdock.prm

>  <SCORE>
-43.2894

>  <SCORE.INTER>
-14.2882

>  <SCORE.INTER.CONST>
1

>  <SCORE.INTER.POLAR>
0

>  <SCORE.INTER.REPUL>
0

>  <SCORE.INTER.ROT>
3

>  <SCORE.INTER.VDW>
-22.6882

>  <SCORE.INTER.norm>
-0.571527

>  <SCORE.INTRA>
-21.6179

>  <SCORE.INTRA.DIHEDRAL>
-49.8861

>  <SCORE.INTRA.DIHEDRAL.0>
53.4367

>  <SCORE.INTRA.POLAR>
0

>  <SCORE.INTRA.POLAR.0>
0

>  <SCORE.INTRA.REPUL>
0

>  <SCORE.INTRA.REPUL.0>
0

>  <SCORE.INTRA.VDW>
3.32517

>  <SCORE.INTRA.VDW.0>
-2.8946

>  <SCORE.INTRA.norm>
-0.864715

>  <SCORE.RESTR>
0

>  <SCORE.RESTR.CAVITY>
0

>  <SCORE.RESTR.norm>
0

>  <SCORE.SYSTEM>
-7.38333

>  <SCORE.SYSTEM.CONST>
0

>  <SCORE.SYSTEM.DIHEDRAL>
6.50457

>  <SCORE.SYSTEM.POLAR>
-4.05246

>  <SCORE.SYSTEM.REPUL>
0.036193

>  <SCORE.SYSTEM.VDW>
2.96178

>  <SCORE.SYSTEM.norm>
-0.295333

>  <SCORE.heavy>
25

>  <SCORE.norm>
-1.73158

$$$$
F3205-0009
  rDOCK(R)          3D
libRbt.so/2013.1/901 2013/11/27
 25 28  0  0  0  0  0  0  0  0999 V2000
  -15.9537   19.9780  -15.2231 O   0  0  0  0  0  0
  -16.8004   19.4437  -15.9229 C   0  0  0  0  0  0
  -18.0733   20.1046  -16.3454 C   0  0  0  0  0  0
  -18.9117   18.9488  -16.8713 C   0  0  0  0  0  0
  -19.8065   18.2270  -15.8214 C   0  0  0  0  0  0
  -20.7101   17.1509  -16.4665 C   0  0  0  0  0  0
  -21.7399   17.7646  -17.4111 C   0  0  0  0  0  0
  -22.5442   18.8887  -16.7540 C   0  0  0  0  0  0
  -21.9100   19.5220  -15.5479 C   0  0  0  0  0  0
  -20.6910   19.2203  -15.0624 C   0  0  0  0  0  0
  -20.2388   19.7283  -13.8429 N   0  0  0  0  0  0
  -18.9961   19.2617  -13.1851 C   0  0  0  0  0  0
  -18.2357   20.4235  -12.5365 C   0  0  0  0  0  0
  -19.0716   21.1617  -11.6322 O   0  0  0  0  0  0
  -20.1953   21.7021  -12.3417 C   0  0  0  0  0  0
  -21.0583   20.5967  -12.9709 C   0  0  0  0  0  0
  -17.8151   18.0189  -17.3292 C   0  0  0  0  0  0
  -17.9478   17.2457  -18.2674 O   0  0  0  0  0  0
  -16.7145   18.2229  -16.5449 N   0  0  0  0  0  0
  -15.4788   17.4275  -16.4668 C   0  0  0  0  0  0
  -15.7855   15.9498  -16.1406 C   0  0  0  0  0  0
  -16.2877   15.1719  -17.3533 C   0  0  0  0  0  0
  -15.2846   15.2352  -18.4978 C   0  0  0  0  0  0
  -14.9617   16.6746  -18.8772 C   0  0  0  0  0  0
  -14.5248   17.5110  -17.6712 C   0  0  0  0  0  0
  1  2  2  0  0  0
  2  3  1  0  0  0
  2 19  1  0  0  0
  3  4  1  0  0  0
  4  5  1  0  0  0
  4 17  1  0  0  0
  5  6  1  0  0  0
  5 10  1  0  0  0
  6  7  1  0  0  0
  7  8  1  0  0  0
  8  9  1  0  0  0
  9 10  2  0  0  0
 10 11  1  0  0  0
 11 12  1  0  0  0
 11 16  1  0  0  0
 12 13  1  0  0  0
 13 14  1  0  0  0
 14 15  1  0  0  0
 15 16  1  0  0  0
 17 18  2  0  0  0
 17 19  1  0  0  0
 19 20  1  0  0  0
 20 21  1  0  0  0
 20 25  1  0  0  0
 21 22  1  0  0  0
 22 23  1  0  0  0
 23 24  1  0  0  0
 24 25  1  0  0  0
M  END
>  <CHROM.0>
-58.59254034,65.32364760,-128.92168531,64.09101578,-29.44106751,-59.36512929
81.84406484,-165.13487134

>  <CHROM.1>
175.06419015,-5.62980554,134.13467840,-18.36875557,18.55284136,-15.78077953
-0.86781689,-0.08730633,0.91846418

>  <Name>
F3205-0009

>  <RI>
3.01448e+07

>  <Rbt.Current_Directory>
/home/adria/Escritorio/rDock_CMTR_LC/2pxcA_model/inputs_sah

>  <Rbt.Executable>
rbdock ($Id: //depot/dev/client3/rdock/2013.1/src/exe/rbdock.cxx#4 $)

>  <Rbt.Library>
libRbt.so (2013.1, Build901 2013/11/27)

>  <Rbt.Parameter_File>
/home/adria/Escritorio/rDock_2013.1_src/data/scripts/dock.prm

>  <Rbt.Receptor>
sah_rdock.prm

>  <SCORE>
-36.8859

>  <SCORE.INTER>
-6.20149

>  <SCORE.INTER.CONST>
1

>  <SCORE.INTER.POLAR>
0

>  <SCORE.INTER.REPUL>
0

>  <SCORE.INTER.ROT>
3

>  <SCORE.INTER.VDW>
-14.6015

>  <SCORE.INTER.norm>
-0.24806

>  <SCORE.INTRA>
-24.0205

>  <SCORE.INTRA.DIHEDRAL>
-49.5091

>  <SCORE.INTRA.DIHEDRAL.0>
53.4367

>  <SCORE.INTRA.POLAR>
0

>  <SCORE.INTRA.POLAR.0>
0

>  <SCORE.INTRA.REPUL>
0

>  <SCORE.INTRA.REPUL.0>
0

>  <SCORE.INTRA.VDW>
0.734016

>  <SCORE.INTRA.VDW.0>
-2.8946

>  <SCORE.INTRA.norm>
-0.960821

>  <SCORE.RESTR>
0

>  <SCORE.RESTR.CAVITY>
0

>  <SCORE.RESTR.norm>
0

>  <SCORE.SYSTEM>
-6.66383

>  <SCORE.SYSTEM.CONST>
0

>  <SCORE.SYSTEM.DIHEDRAL>
8.71487

>  <SCORE.SYSTEM.POLAR>
-4.17369

>  <SCORE.SYSTEM.VDW>
3.16928

>  <SCORE.SYSTEM.norm>
-0.266553

>  <SCORE.heavy>
25

>  <SCORE.norm>
-1.47543

$$$$
