F3411-7832
  rDOCK(R)          3D
libRbt.so/2013.1/901 2013/11/27
 31 34  0  0  0  0  0  0  0  0999 V2000
  -25.4602   23.4500  -10.4703 C   0  0  0  0  0  0
  -25.4641   21.9223   -9.9243 C   0  0  0  0  0  0
  -25.5907   20.3949  -10.7260 C   0  0  0  0  0  0
  -24.5546   19.7018  -11.8964 C   0  0  0  0  0  0
  -23.5792   18.5381  -11.1130 C   0  0  0  0  0  0
  -21.5856   18.5160  -11.1051 C   0  0  0  0  0  0
  -20.9228   19.4877  -12.4845 C   0  0  0  0  0  0
  -22.0818   20.4551  -13.4243 C   0  0  0  0  0  0
  -23.7956   20.5760  -13.0893 C   0  0  0  0  0  0
  -19.6834   18.7802  -13.5498 S   0  0  0  0  0  0
  -18.7932   19.9016  -13.8210 O   0  0  0  0  0  0
  -19.1736   17.6030  -12.8781 O   0  0  0  0  0  0
  -20.3002   18.3005  -15.1796 C   0  0  0  0  0  0
  -21.6598   17.9372  -15.0593 C   0  0  0  0  0  0
  -22.1250   17.0625  -14.0574 C   0  0  0  0  0  0
  -23.4743   16.8558  -13.8793 C   0  0  0  0  0  0
  -23.8856   16.0325  -12.9095 F   0  0  0  0  0  0
  -24.3859   17.5033  -14.6887 C   0  0  0  0  0  0
  -23.9283   18.3152  -15.7299 C   0  0  0  0  0  0
  -22.5750   18.5096  -15.9539 C   0  0  0  0  0  0
  -22.1793   19.2486  -16.9889 N   0  0  0  0  0  0
  -20.8480   19.3147  -17.2258 C   0  0  0  0  0  0
  -19.8372   18.7979  -16.3910 C   0  0  0  0  0  0
  -18.5048   18.6949  -17.0830 C   0  0  0  0  0  0
  -18.4697   19.3157  -18.1591 O   0  0  0  0  0  0
  -17.2427   18.1897  -16.5512 N   0  0  0  0  0  0
  -17.3599   16.4675  -16.9634 C   0  0  0  0  0  0
  -16.3234   15.7920  -18.3271 C   0  0  0  0  0  0
  -14.8675   16.4760  -18.7610 C   0  0  0  0  0  0
  -14.3451   18.2080  -18.3600 C   0  0  0  0  0  0
  -15.5199   19.0786  -16.6049 C   0  0  0  0  0  0
  1  2  1  0  0  0
  2  3  1  0  0  0
  3  4  1  0  0  0
  4  5  2  0  0  0
  4  9  1  0  0  0
  5  6  1  0  0  0
  6  7  2  0  0  0
  7  8  1  0  0  0
  7 10  1  0  0  0
  8  9  2  0  0  0
 10 11  2  0  0  0
 10 12  2  0  0  0
 10 13  1  0  0  0
 13 14  2  0  0  0
 13 23  1  0  0  0
 14 15  1  0  0  0
 14 20  1  0  0  0
 15 16  2  0  0  0
 16 17  1  0  0  0
 16 18  1  0  0  0
 18 19  2  0  0  0
 19 20  1  0  0  0
 20 21  2  0  0  0
 21 22  1  0  0  0
 22 23  2  0  0  0
 23 24  1  0  0  0
 24 25  2  0  0  0
 24 26  1  0  0  0
 26 27  1  0  0  0
 26 31  1  0  0  0
 27 28  1  0  0  0
 28 29  1  0  0  0
 29 30  1  0  0  0
 30 31  1  0  0  0
M  END
>  <CHROM.0>
-61.29998168,65.97760578,73.54854398,-63.69062634,-31.08327261,-58.29215317
-39.16048275,-156.94565625

>  <CHROM.1>
61.10332891,101.93848994,-141.70861789,-30.04316940,-178.21681364,89.55446458
-20.83020366,18.68302531,-14.56648439,-2.53042968,-0.30952668,-2.36247611

>  <Name>
F3411-7832

>  <RI>
3.49863e+07

>  <Rbt.Current_Directory>
/home/adria/Escritorio/rDock_CMTR_LC/2pxcA_model/inputs_sah

>  <Rbt.Executable>
rbdock ($Id: //depot/dev/client3/rdock/2013.1/src/exe/rbdock.cxx#4 $)

>  <Rbt.Library>
libRbt.so (2013.1, Build901 2013/11/27)

>  <Rbt.Parameter_File>
/home/adria/Escritorio/rDock_2013.1_src/data/scripts/dock.prm

>  <Rbt.Receptor>
sah_rdock.prm

>  <SCORE>
-285.427

>  <SCORE.INTER>
-10.387

>  <SCORE.INTER.CONST>
1

>  <SCORE.INTER.POLAR>
-0.805878

>  <SCORE.INTER.REPUL>
0.0712616

>  <SCORE.INTER.ROT>
6

>  <SCORE.INTER.VDW>
-19.4033

>  <SCORE.INTER.norm>
-0.335064

>  <SCORE.INTRA>
-267.916

>  <SCORE.INTRA.DIHEDRAL>
-1.48909

>  <SCORE.INTRA.DIHEDRAL.0>
5.956

>  <SCORE.INTRA.POLAR>
0

>  <SCORE.INTRA.POLAR.0>
0

>  <SCORE.INTRA.REPUL>
0

>  <SCORE.INTRA.REPUL.0>
0

>  <SCORE.INTRA.VDW>
-267.171

>  <SCORE.INTRA.VDW.0>
262.356

>  <SCORE.INTRA.norm>
-8.64244

>  <SCORE.RESTR>
0

>  <SCORE.RESTR.CAVITY>
0

>  <SCORE.RESTR.norm>
0

>  <SCORE.SYSTEM>
-7.12484

>  <SCORE.SYSTEM.CONST>
0

>  <SCORE.SYSTEM.DIHEDRAL>
5.79346

>  <SCORE.SYSTEM.POLAR>
-3.69803

>  <SCORE.SYSTEM.VDW>
2.55171

>  <SCORE.SYSTEM.norm>
-0.229834

>  <SCORE.heavy>
31

>  <SCORE.norm>
-9.20733

$$$$
F3411-7832
  rDOCK(R)          3D
libRbt.so/2013.1/901 2013/11/27
 31 34  0  0  0  0  0  0  0  0999 V2000
  -13.6551   20.8092  -17.4500 C   0  0  0  0  0  0
  -14.8652   20.2222  -16.5427 C   0  0  0  0  0  0
  -16.1411   19.1037  -16.8782 C   0  0  0  0  0  0
  -17.4048   18.5708  -15.8570 C   0  0  0  0  0  0
  -18.7502   18.1902  -16.8389 C   0  0  0  0  0  0
  -20.5740   18.9753  -16.6572 C   0  0  0  0  0  0
  -20.8164   19.6705  -15.0006 C   0  0  0  0  0  0
  -19.3895   19.7607  -13.9433 C   0  0  0  0  0  0
  -17.7697   19.2761  -14.3966 C   0  0  0  0  0  0
  -22.2680   19.2384  -14.0638 S   0  0  0  0  0  0
  -23.3424   19.3386  -15.0431 O   0  0  0  0  0  0
  -21.9934   17.9683  -13.4245 O   0  0  0  0  0  0
  -22.7117   20.4462  -12.7946 C   0  0  0  0  0  0
  -23.6420   19.8537  -11.9124 C   0  0  0  0  0  0
  -24.7739   19.1479  -12.3662 C   0  0  0  0  0  0
  -25.5696   18.4563  -11.4810 C   0  0  0  0  0  0
  -26.6275   17.7826  -11.9441 F   0  0  0  0  0  0
  -25.2656   18.4535  -10.1346 C   0  0  0  0  0  0
  -24.1868   19.2104   -9.6699 C   0  0  0  0  0  0
  -23.3932   19.9455  -10.5356 C   0  0  0  0  0  0
  -22.4069   20.6954  -10.0470 N   0  0  0  0  0  0
  -21.7349   21.4776  -10.9243 C   0  0  0  0  0  0
  -21.8837   21.4580  -12.3255 C   0  0  0  0  0  0
  -21.2917   22.6703  -12.9921 C   0  0  0  0  0  0
  -20.9528   22.4578  -14.1688 O   0  0  0  0  0  0
  -21.2974   24.0545  -12.5286 N   0  0  0  0  0  0
  -23.0203   24.4571  -12.6671 C   0  0  0  0  0  0
  -24.0383   24.6094  -11.1404 C   0  0  0  0  0  0
  -23.3791   25.0307   -9.6694 C   0  0  0  0  0  0
  -21.5850   24.8887   -9.2287 C   0  0  0  0  0  0
  -20.2471   24.7989  -11.0781 C   0  0  0  0  0  0
  1  2  1  0  0  0
  2  3  1  0  0  0
  3  4  1  0  0  0
  4  5  2  0  0  0
  4  9  1  0  0  0
  5  6  1  0  0  0
  6  7  2  0  0  0
  7  8  1  0  0  0
  7 10  1  0  0  0
  8  9  2  0  0  0
 10 11  2  0  0  0
 10 12  2  0  0  0
 10 13  1  0  0  0
 13 14  2  0  0  0
 13 23  1  0  0  0
 14 15  1  0  0  0
 14 20  1  0  0  0
 15 16  2  0  0  0
 16 17  1  0  0  0
 16 18  1  0  0  0
 18 19  2  0  0  0
 19 20  1  0  0  0
 20 21  2  0  0  0
 21 22  1  0  0  0
 22 23  2  0  0  0
 23 24  1  0  0  0
 24 25  2  0  0  0
 24 26  1  0  0  0
 26 27  1  0  0  0
 26 31  1  0  0  0
 27 28  1  0  0  0
 28 29  1  0  0  0
 29 30  1  0  0  0
 30 31  1  0  0  0
M  END
>  <CHROM.0>
-61.47561011,65.50091164,-160.00257170,64.24424942,167.65353566,64.37112895
-35.92743909,-157.74645160

>  <CHROM.1>
-178.31739533,150.43487818,-44.36816665,-165.29969065,-37.27823981,-68.20661549
-21.50825404,20.62133657,-13.08360032,-0.42224928,0.50992267,0.49389619

>  <Name>
F3411-7832

>  <RI>
3.49863e+07

>  <Rbt.Current_Directory>
/home/adria/Escritorio/rDock_CMTR_LC/2pxcA_model/inputs_sah

>  <Rbt.Executable>
rbdock ($Id: //depot/dev/client3/rdock/2013.1/src/exe/rbdock.cxx#4 $)

>  <Rbt.Library>
libRbt.so (2013.1, Build901 2013/11/27)

>  <Rbt.Parameter_File>
/home/adria/Escritorio/rDock_2013.1_src/data/scripts/dock.prm

>  <Rbt.Receptor>
sah_rdock.prm

>  <SCORE>
-276.561

>  <SCORE.INTER>
-8.72083

>  <SCORE.INTER.CONST>
1

>  <SCORE.INTER.POLAR>
0

>  <SCORE.INTER.REPUL>
0.0878532

>  <SCORE.INTER.ROT>
6

>  <SCORE.INTER.VDW>
-20.5601

>  <SCORE.INTER.norm>
-0.281317

>  <SCORE.INTRA>
-266.25

>  <SCORE.INTRA.DIHEDRAL>
1.4536

>  <SCORE.INTRA.DIHEDRAL.0>
5.956

>  <SCORE.INTRA.POLAR>
0

>  <SCORE.INTRA.POLAR.0>
0

>  <SCORE.INTRA.REPUL>
0

>  <SCORE.INTRA.REPUL.0>
0

>  <SCORE.INTRA.VDW>
-266.977

>  <SCORE.INTRA.VDW.0>
262.356

>  <SCORE.INTRA.norm>
-8.58871

>  <SCORE.RESTR>
0.212425

>  <SCORE.RESTR.CAVITY>
0.212425

>  <SCORE.RESTR.norm>
0.00685242

>  <SCORE.SYSTEM>
-1.80308

>  <SCORE.SYSTEM.CONST>
0

>  <SCORE.SYSTEM.DIHEDRAL>
3.85994

>  <SCORE.SYSTEM.POLAR>
-3.60524

>  <SCORE.SYSTEM.VDW>
8.52478

>  <SCORE.SYSTEM.norm>
-0.058164

>  <SCORE.heavy>
31

>  <SCORE.norm>
-8.92134

$$$$
F3411-7832
  rDOCK(R)          3D
libRbt.so/2013.1/901 2013/11/27
 31 34  0  0  0  0  0  0  0  0999 V2000
  -24.0799   23.0068   -8.4423 C   0  0  0  0  0  0
  -25.1403   22.5258   -9.5720 C   0  0  0  0  0  0
  -25.0858   21.2810  -10.7716 C   0  0  0  0  0  0
  -23.9722   21.0637  -12.0509 C   0  0  0  0  0  0
  -23.0942   19.6299  -11.7468 C   0  0  0  0  0  0
  -21.1094   19.4946  -11.6155 C   0  0  0  0  0  0
  -20.3101   20.9025  -12.4312 C   0  0  0  0  0  0
  -21.3626   22.2307  -12.9700 C   0  0  0  0  0  0
  -23.0950   22.3016  -12.7300 C   0  0  0  0  0  0
  -19.0032   20.6181  -13.6070 S   0  0  0  0  0  0
  -18.9408   21.8703  -14.3498 O   0  0  0  0  0  0
  -17.8501   20.1700  -12.8543 O   0  0  0  0  0  0
  -19.3983   19.3785  -14.8615 C   0  0  0  0  0  0
  -18.2020   18.9862  -15.5018 C   0  0  0  0  0  0
  -17.2577   19.9162  -15.9799 C   0  0  0  0  0  0
  -16.0379   19.4934  -16.4574 C   0  0  0  0  0  0
  -15.1563   20.4011  -16.8892 F   0  0  0  0  0  0
  -15.7313   18.1476  -16.4762 C   0  0  0  0  0  0
  -16.6911   17.2164  -16.0709 C   0  0  0  0  0  0
  -17.9399   17.6141  -15.6218 C   0  0  0  0  0  0
  -18.8448   16.6933  -15.2943 N   0  0  0  0  0  0
  -20.0826   17.1343  -14.9682 C   0  0  0  0  0  0
  -20.4575   18.4820  -14.7980 C   0  0  0  0  0  0
  -21.9494   18.6781  -14.8051 C   0  0  0  0  0  0
  -22.2840   19.8518  -14.5703 O   0  0  0  0  0  0
  -22.9831   17.7605  -15.2748 N   0  0  0  0  0  0
  -23.7477   17.2901  -13.7439 C   0  0  0  0  0  0
  -25.4159   17.9486  -13.3270 C   0  0  0  0  0  0
  -26.5102   18.4057  -14.4973 C   0  0  0  0  0  0
  -26.0798   18.8213  -16.2509 C   0  0  0  0  0  0
  -24.0635   17.9471  -16.8745 C   0  0  0  0  0  0
  1  2  1  0  0  0
  2  3  1  0  0  0
  3  4  1  0  0  0
  4  5  2  0  0  0
  4  9  1  0  0  0
  5  6  1  0  0  0
  6  7  2  0  0  0
  7  8  1  0  0  0
  7 10  1  0  0  0
  8  9  2  0  0  0
 10 11  2  0  0  0
 10 12  2  0  0  0
 10 13  1  0  0  0
 13 14  2  0  0  0
 13 23  1  0  0  0
 14 15  1  0  0  0
 14 20  1  0  0  0
 15 16  2  0  0  0
 16 17  1  0  0  0
 16 18  1  0  0  0
 18 19  2  0  0  0
 19 20  1  0  0  0
 20 21  2  0  0  0
 21 22  1  0  0  0
 22 23  2  0  0  0
 23 24  1  0  0  0
 24 25  2  0  0  0
 24 26  1  0  0  0
 26 27  1  0  0  0
 26 31  1  0  0  0
 27 28  1  0  0  0
 28 29  1  0  0  0
 29 30  1  0  0  0
 30 31  1  0  0  0
M  END
>  <CHROM.0>
-178.80839204,-73.16110026,-167.07876037,-61.15974140,36.37112446,61.71950081
83.41338977,-162.66517464

>  <CHROM.1>
-59.14593116,114.17880373,161.51481043,-164.76913969,-15.73659827,110.40220506
-20.93615725,19.60985087,-14.02540025,-2.70193341,-0.19322998,-2.32650868

>  <Name>
F3411-7832

>  <RI>
3.49863e+07

>  <Rbt.Current_Directory>
/home/adria/Escritorio/rDock_CMTR_LC/2pxcA_model/inputs_sah

>  <Rbt.Executable>
rbdock ($Id: //depot/dev/client3/rdock/2013.1/src/exe/rbdock.cxx#4 $)

>  <Rbt.Library>
libRbt.so (2013.1, Build901 2013/11/27)

>  <Rbt.Parameter_File>
/home/adria/Escritorio/rDock_2013.1_src/data/scripts/dock.prm

>  <Rbt.Receptor>
sah_rdock.prm

>  <SCORE>
-270.653

>  <SCORE.INTER>
-7.51974

>  <SCORE.INTER.CONST>
1

>  <SCORE.INTER.POLAR>
0

>  <SCORE.INTER.REPUL>
0

>  <SCORE.INTER.ROT>
6

>  <SCORE.INTER.VDW>
-18.9197

>  <SCORE.INTER.norm>
-0.242572

>  <SCORE.INTRA>
-268.217

>  <SCORE.INTRA.DIHEDRAL>
-1.81288

>  <SCORE.INTRA.DIHEDRAL.0>
5.956

>  <SCORE.INTRA.POLAR>
0

>  <SCORE.INTRA.POLAR.0>
0

>  <SCORE.INTRA.REPUL>
0

>  <SCORE.INTRA.REPUL.0>
0

>  <SCORE.INTRA.VDW>
-267.31

>  <SCORE.INTRA.VDW.0>
262.356

>  <SCORE.INTRA.norm>
-8.65215

>  <SCORE.RESTR>
0.00335897

>  <SCORE.RESTR.CAVITY>
0.00335897

>  <SCORE.RESTR.norm>
0.000108354

>  <SCORE.SYSTEM>
5.07962

>  <SCORE.SYSTEM.CONST>
0

>  <SCORE.SYSTEM.DIHEDRAL>
5.27788

>  <SCORE.SYSTEM.POLAR>
-3.62454

>  <SCORE.SYSTEM.REPUL>
0.0388219

>  <SCORE.SYSTEM.VDW>
14.57

>  <SCORE.SYSTEM.norm>
0.163859

>  <SCORE.heavy>
31

>  <SCORE.norm>
-8.73075

$$$$
F3411-7832
  rDOCK(R)          3D
libRbt.so/2013.1/901 2013/11/27
 31 34  0  0  0  0  0  0  0  0999 V2000
  -14.3835   18.1477  -18.0368 C   0  0  0  0  0  0
  -14.8633   19.5316  -17.3391 C   0  0  0  0  0  0
  -15.9352   19.8670  -16.0239 C   0  0  0  0  0  0
  -17.5708   19.4108  -15.8220 C   0  0  0  0  0  0
  -18.2995   20.5242  -14.7503 C   0  0  0  0  0  0
  -19.2252   20.0551  -13.0479 C   0  0  0  0  0  0
  -19.7351   18.3154  -13.0475 C   0  0  0  0  0  0
  -19.1441   17.2979  -14.3808 C   0  0  0  0  0  0
  -18.0751   17.8353  -15.6584 C   0  0  0  0  0  0
  -21.4096   17.8846  -12.6211 S   0  0  0  0  0  0
  -21.6615   16.6886  -13.4145 O   0  0  0  0  0  0
  -21.4712   17.8155  -11.1759 O   0  0  0  0  0  0
  -22.6451   19.0693  -13.2014 C   0  0  0  0  0  0
  -22.5882   19.1273  -14.6115 C   0  0  0  0  0  0
  -21.3759   19.2645  -15.3163 C   0  0  0  0  0  0
  -21.3482   19.1623  -16.6888 C   0  0  0  0  0  0
  -20.1800   19.2808  -17.3282 F   0  0  0  0  0  0
  -22.5149   18.9286  -17.3886 C   0  0  0  0  0  0
  -23.7297   18.8638  -16.7011 C   0  0  0  0  0  0
  -23.7892   19.0013  -15.3238 C   0  0  0  0  0  0
  -24.9722   18.9858  -14.7119 N   0  0  0  0  0  0
  -24.9810   19.2345  -13.3812 C   0  0  0  0  0  0
  -23.8426   19.3587  -12.5598 C   0  0  0  0  0  0
  -24.1493   19.9908  -11.2291 C   0  0  0  0  0  0
  -25.3351   19.8454  -10.8866 O   0  0  0  0  0  0
  -23.2155   20.5079  -10.2333 N   0  0  0  0  0  0
  -22.3697   21.7560  -11.1695 C   0  0  0  0  0  0
  -22.7218   23.5318  -10.8334 C   0  0  0  0  0  0
  -23.2523   24.0683   -9.3479 C   0  0  0  0  0  0
  -24.0450   23.0045   -8.0545 C   0  0  0  0  0  0
  -23.5662   20.7900   -8.3469 C   0  0  0  0  0  0
  1  2  1  0  0  0
  2  3  1  0  0  0
  3  4  1  0  0  0
  4  5  2  0  0  0
  4  9  1  0  0  0
  5  6  1  0  0  0
  6  7  2  0  0  0
  7  8  1  0  0  0
  7 10  1  0  0  0
  8  9  2  0  0  0
 10 11  2  0  0  0
 10 12  2  0  0  0
 10 13  1  0  0  0
 13 14  2  0  0  0
 13 23  1  0  0  0
 14 15  1  0  0  0
 14 20  1  0  0  0
 15 16  2  0  0  0
 16 17  1  0  0  0
 16 18  1  0  0  0
 18 19  2  0  0  0
 19 20  1  0  0  0
 20 21  2  0  0  0
 21 22  1  0  0  0
 22 23  2  0  0  0
 23 24  1  0  0  0
 24 25  2  0  0  0
 24 26  1  0  0  0
 26 27  1  0  0  0
 26 31  1  0  0  0
 27 28  1  0  0  0
 28 29  1  0  0  0
 29 30  1  0  0  0
 30 31  1  0  0  0
M  END
>  <CHROM.0>
-178.43337343,-77.76398535,-7.85213230,65.20897104,169.06194279,-176.02385436
-161.82071042,-164.32494769

>  <CHROM.1>
-55.95229382,-155.80364120,148.68946302,61.17204304,-166.70147129,59.58818946
-21.34584447,19.51480039,-13.57736183,-0.77854573,0.17637663,1.04174442

>  <Name>
F3411-7832

>  <RI>
3.49863e+07

>  <Rbt.Current_Directory>
/home/adria/Escritorio/rDock_CMTR_LC/2pxcA_model/inputs_sah

>  <Rbt.Executable>
rbdock ($Id: //depot/dev/client3/rdock/2013.1/src/exe/rbdock.cxx#4 $)

>  <Rbt.Library>
libRbt.so (2013.1, Build901 2013/11/27)

>  <Rbt.Parameter_File>
/home/adria/Escritorio/rDock_2013.1_src/data/scripts/dock.prm

>  <Rbt.Receptor>
sah_rdock.prm

>  <SCORE>
-283.359

>  <SCORE.INTER>
-15.1677

>  <SCORE.INTER.CONST>
1

>  <SCORE.INTER.POLAR>
-0.453151

>  <SCORE.INTER.REPUL>
0.0132701

>  <SCORE.INTER.ROT>
6

>  <SCORE.INTER.VDW>
-25.0933

>  <SCORE.INTER.norm>
-0.48928

>  <SCORE.INTRA>
-266.232

>  <SCORE.INTRA.DIHEDRAL>
-1.08634

>  <SCORE.INTRA.DIHEDRAL.0>
5.956

>  <SCORE.INTRA.POLAR>
0

>  <SCORE.INTRA.POLAR.0>
0

>  <SCORE.INTRA.REPUL>
0

>  <SCORE.INTRA.REPUL.0>
0

>  <SCORE.INTRA.VDW>
-265.689

>  <SCORE.INTRA.VDW.0>
262.356

>  <SCORE.INTRA.norm>
-8.58814

>  <SCORE.RESTR>
0

>  <SCORE.RESTR.CAVITY>
0

>  <SCORE.RESTR.norm>
0

>  <SCORE.SYSTEM>
-1.95923

>  <SCORE.SYSTEM.CONST>
0

>  <SCORE.SYSTEM.DIHEDRAL>
6.7631

>  <SCORE.SYSTEM.POLAR>
-4.45714

>  <SCORE.SYSTEM.REPUL>
0.0459106

>  <SCORE.SYSTEM.VDW>
9.58393

>  <SCORE.SYSTEM.norm>
-0.063201

>  <SCORE.heavy>
31

>  <SCORE.norm>
-9.14062

$$$$
F3411-7832
  rDOCK(R)          3D
libRbt.so/2013.1/901 2013/11/27
 31 34  0  0  0  0  0  0  0  0999 V2000
  -14.7306   16.3601  -17.5629 C   0  0  0  0  0  0
  -16.3117   16.0619  -17.3549 C   0  0  0  0  0  0
  -17.7268   17.0201  -17.6214 C   0  0  0  0  0  0
  -18.1555   18.5255  -16.9331 C   0  0  0  0  0  0
  -17.4500   18.6142  -15.3796 C   0  0  0  0  0  0
  -18.4378   18.9305  -13.6768 C   0  0  0  0  0  0
  -20.0480   19.6994  -13.9968 C   0  0  0  0  0  0
  -20.5676   19.8147  -15.6935 C   0  0  0  0  0  0
  -19.6682   19.2020  -17.0646 C   0  0  0  0  0  0
  -20.5287   21.1553  -13.0908 S   0  0  0  0  0  0
  -19.4792   21.2895  -12.0887 O   0  0  0  0  0  0
  -20.7332   22.2080  -14.0639 O   0  0  0  0  0  0
  -22.0418   20.9540  -12.1229 C   0  0  0  0  0  0
  -22.5295   19.6424  -12.3143 C   0  0  0  0  0  0
  -22.6563   19.0593  -13.5907 C   0  0  0  0  0  0
  -22.9884   17.7301  -13.7238 C   0  0  0  0  0  0
  -23.0852   17.2014  -14.9480 F   0  0  0  0  0  0
  -23.2058   16.9559  -12.6018 C   0  0  0  0  0  0
  -23.1524   17.5460  -11.3363 C   0  0  0  0  0  0
  -22.8574   18.8903  -11.1773 C   0  0  0  0  0  0
  -22.8679   19.4261   -9.9580 N   0  0  0  0  0  0
  -22.6819   20.7643   -9.8712 C   0  0  0  0  0  0
  -22.3295   21.6167  -10.9365 C   0  0  0  0  0  0
  -22.5552   23.0704  -10.6199 C   0  0  0  0  0  0
  -22.1501   23.8292  -11.5170 O   0  0  0  0  0  0
  -23.3720   23.6519   -9.5588 N   0  0  0  0  0  0
  -24.6924   24.3758  -10.4981 C   0  0  0  0  0  0
  -26.3559   23.5869  -10.4752 C   0  0  0  0  0  0
  -26.8873   22.6673   -9.1915 C   0  0  0  0  0  0
  -25.7912   21.8827   -7.9201 C   0  0  0  0  0  0
  -23.7381   22.8794   -7.8181 C   0  0  0  0  0  0
  1  2  1  0  0  0
  2  3  1  0  0  0
  3  4  1  0  0  0
  4  5  2  0  0  0
  4  9  1  0  0  0
  5  6  1  0  0  0
  6  7  2  0  0  0
  7  8  1  0  0  0
  7 10  1  0  0  0
  8  9  2  0  0  0
 10 11  2  0  0  0
 10 12  2  0  0  0
 10 13  1  0  0  0
 13 14  2  0  0  0
 13 23  1  0  0  0
 14 15  1  0  0  0
 14 20  1  0  0  0
 15 16  2  0  0  0
 16 17  1  0  0  0
 16 18  1  0  0  0
 18 19  2  0  0  0
 19 20  1  0  0  0
 20 21  2  0  0  0
 21 22  1  0  0  0
 22 23  2  0  0  0
 23 24  1  0  0  0
 24 25  2  0  0  0
 24 26  1  0  0  0
 26 27  1  0  0  0
 26 31  1  0  0  0
 27 28  1  0  0  0
 28 29  1  0  0  0
 29 30  1  0  0  0
 30 31  1  0  0  0
M  END
>  <CHROM.0>
37.68392915,64.58118372,-45.59518329,64.17931179,-30.76340303,-177.46767398
-36.96496852,-160.93152372

>  <CHROM.1>
-59.28178435,-29.31981979,-7.84401425,-0.41528678,-16.60660970,-110.86194031
-21.55989302,20.20714916,-12.76442398,-0.74431860,0.56641900,0.41570633

>  <Name>
F3411-7832

>  <RI>
3.49863e+07

>  <Rbt.Current_Directory>
/home/adria/Escritorio/rDock_CMTR_LC/2pxcA_model/inputs_sah

>  <Rbt.Executable>
rbdock ($Id: //depot/dev/client3/rdock/2013.1/src/exe/rbdock.cxx#4 $)

>  <Rbt.Library>
libRbt.so (2013.1, Build901 2013/11/27)

>  <Rbt.Parameter_File>
/home/adria/Escritorio/rDock_2013.1_src/data/scripts/dock.prm

>  <Rbt.Receptor>
sah_rdock.prm

>  <SCORE>
-276.756

>  <SCORE.INTER>
-10.2415

>  <SCORE.INTER.CONST>
1

>  <SCORE.INTER.POLAR>
-0.358173

>  <SCORE.INTER.REPUL>
0

>  <SCORE.INTER.ROT>
6

>  <SCORE.INTER.VDW>
-20.4237

>  <SCORE.INTER.norm>
-0.33037

>  <SCORE.INTRA>
-263.716

>  <SCORE.INTRA.DIHEDRAL>
0.599528

>  <SCORE.INTRA.DIHEDRAL.0>
5.956

>  <SCORE.INTRA.POLAR>
0

>  <SCORE.INTRA.POLAR.0>
0

>  <SCORE.INTRA.REPUL>
0

>  <SCORE.INTRA.REPUL.0>
0

>  <SCORE.INTRA.VDW>
-264.016

>  <SCORE.INTRA.VDW.0>
262.356

>  <SCORE.INTRA.norm>
-8.50698

>  <SCORE.RESTR>
0

>  <SCORE.RESTR.CAVITY>
0

>  <SCORE.RESTR.norm>
0

>  <SCORE.SYSTEM>
-2.79845

>  <SCORE.SYSTEM.CONST>
0

>  <SCORE.SYSTEM.DIHEDRAL>
8.00999

>  <SCORE.SYSTEM.POLAR>
-3.62706

>  <SCORE.SYSTEM.REPUL>
0.130277

>  <SCORE.SYSTEM.VDW>
4.87719

>  <SCORE.SYSTEM.norm>
-0.0902724

>  <SCORE.heavy>
31

>  <SCORE.norm>
-8.92762

$$$$
F3411-7832
  rDOCK(R)          3D
libRbt.so/2013.1/901 2013/11/27
 31 34  0  0  0  0  0  0  0  0999 V2000
  -16.6449   13.8706  -18.7692 C   0  0  0  0  0  0
  -17.2048   15.3582  -19.0945 C   0  0  0  0  0  0
  -16.7266   16.9306  -18.5556 C   0  0  0  0  0  0
  -16.7354   17.5775  -16.9728 C   0  0  0  0  0  0
  -17.5420   16.4673  -15.9548 C   0  0  0  0  0  0
  -19.1310   16.8791  -14.8231 C   0  0  0  0  0  0
  -19.2672   18.6619  -14.5241 C   0  0  0  0  0  0
  -18.1715   19.7225  -15.4389 C   0  0  0  0  0  0
  -17.0125   19.1810  -16.6336 C   0  0  0  0  0  0
  -19.4874   19.2660  -12.8634 S   0  0  0  0  0  0
  -19.7162   18.0514  -12.0914 O   0  0  0  0  0  0
  -18.3441   20.1032  -12.5652 O   0  0  0  0  0  0
  -20.9959   20.2326  -12.6255 C   0  0  0  0  0  0
  -22.0445   19.3544  -12.2732 C   0  0  0  0  0  0
  -22.3052   18.1631  -12.9791 C   0  0  0  0  0  0
  -23.2344   17.2612  -12.5121 C   0  0  0  0  0  0
  -23.4480   16.1320  -13.1954 F   0  0  0  0  0  0
  -23.9250   17.5213  -11.3456 C   0  0  0  0  0  0
  -23.7230   18.7336  -10.6806 C   0  0  0  0  0  0
  -22.8211   19.6744  -11.1506 C   0  0  0  0  0  0
  -22.6961   20.8393  -10.5171 N   0  0  0  0  0  0
  -21.8835   21.7635  -11.0814 C   0  0  0  0  0  0
  -21.0437   21.5517  -12.1930 C   0  0  0  0  0  0
  -20.5538   22.8352  -12.8072 C   0  0  0  0  0  0
  -20.0215   22.6674  -13.9176 O   0  0  0  0  0  0
  -20.8365   24.2059  -12.3919 N   0  0  0  0  0  0
  -22.5480   24.3546  -12.8371 C   0  0  0  0  0  0
  -23.8285   24.3640  -11.5140 C   0  0  0  0  0  0
  -23.5030   24.8819   -9.9642 C   0  0  0  0  0  0
  -21.8119   25.0024   -9.2167 C   0  0  0  0  0  0
  -20.1722   25.0999  -10.8044 C   0  0  0  0  0  0
  1  2  1  0  0  0
  2  3  1  0  0  0
  3  4  1  0  0  0
  4  5  2  0  0  0
  4  9  1  0  0  0
  5  6  1  0  0  0
  6  7  2  0  0  0
  7  8  1  0  0  0
  7 10  1  0  0  0
  8  9  2  0  0  0
 10 11  2  0  0  0
 10 12  2  0  0  0
 10 13  1  0  0  0
 13 14  2  0  0  0
 13 23  1  0  0  0
 14 15  1  0  0  0
 14 20  1  0  0  0
 15 16  2  0  0  0
 16 17  1  0  0  0
 16 18  1  0  0  0
 18 19  2  0  0  0
 19 20  1  0  0  0
 20 21  2  0  0  0
 21 22  1  0  0  0
 22 23  2  0  0  0
 23 24  1  0  0  0
 24 25  2  0  0  0
 24 26  1  0  0  0
 26 27  1  0  0  0
 26 31  1  0  0  0
 27 28  1  0  0  0
 28 29  1  0  0  0
 29 30  1  0  0  0
 30 31  1  0  0  0
M  END
>  <CHROM.0>
-60.73635036,64.79736539,-129.16066231,61.03359166,168.09858170,59.75633065
-36.23431774,-158.02715886

>  <CHROM.1>
-62.59653790,-8.50714501,-8.56343558,88.88225632,0.92052068,-70.16107468
-20.51577120,19.85042191,-13.28781823,0.94450159,-0.67375790,-2.84127204

>  <Name>
F3411-7832

>  <RI>
3.49863e+07

>  <Rbt.Current_Directory>
/home/adria/Escritorio/rDock_CMTR_LC/2pxcA_model/inputs_sah

>  <Rbt.Executable>
rbdock ($Id: //depot/dev/client3/rdock/2013.1/src/exe/rbdock.cxx#4 $)

>  <Rbt.Library>
libRbt.so (2013.1, Build901 2013/11/27)

>  <Rbt.Parameter_File>
/home/adria/Escritorio/rDock_2013.1_src/data/scripts/dock.prm

>  <Rbt.Receptor>
sah_rdock.prm

>  <SCORE>
-284.041

>  <SCORE.INTER>
-16.3182

>  <SCORE.INTER.CONST>
1

>  <SCORE.INTER.POLAR>
-0.485349

>  <SCORE.INTER.REPUL>
0.105733

>  <SCORE.INTER.ROT>
6

>  <SCORE.INTER.VDW>
-26.5967

>  <SCORE.INTER.norm>
-0.526393

>  <SCORE.INTRA>
-265.885

>  <SCORE.INTRA.DIHEDRAL>
-1.02822

>  <SCORE.INTRA.DIHEDRAL.0>
5.956

>  <SCORE.INTRA.POLAR>
0

>  <SCORE.INTRA.POLAR.0>
0

>  <SCORE.INTRA.REPUL>
0

>  <SCORE.INTRA.REPUL.0>
0

>  <SCORE.INTRA.VDW>
-265.37

>  <SCORE.INTRA.VDW.0>
262.356

>  <SCORE.INTRA.norm>
-8.57692

>  <SCORE.RESTR>
0

>  <SCORE.RESTR.CAVITY>
0

>  <SCORE.RESTR.norm>
0

>  <SCORE.SYSTEM>
-1.83857

>  <SCORE.SYSTEM.CONST>
0

>  <SCORE.SYSTEM.DIHEDRAL>
6.08974

>  <SCORE.SYSTEM.POLAR>
-4.15996

>  <SCORE.SYSTEM.VDW>
9.26043

>  <SCORE.SYSTEM.norm>
-0.0593089

>  <SCORE.heavy>
31

>  <SCORE.norm>
-9.16262

$$$$
F3411-7832
  rDOCK(R)          3D
libRbt.so/2013.1/901 2013/11/27
 31 34  0  0  0  0  0  0  0  0999 V2000
  -25.9883   23.2604   -7.9275 C   0  0  0  0  0  0
  -25.5219   23.6837   -9.4226 C   0  0  0  0  0  0
  -23.9648   23.9025  -10.1432 C   0  0  0  0  0  0
  -22.6907   22.7760  -10.3215 C   0  0  0  0  0  0
  -21.4763   23.5020  -11.2792 C   0  0  0  0  0  0
  -20.7449   22.7589  -12.9787 C   0  0  0  0  0  0
  -21.0587   20.9772  -13.0932 C   0  0  0  0  0  0
  -22.1245   20.2618  -11.8625 C   0  0  0  0  0  0
  -22.9262   21.1519  -10.5862 C   0  0  0  0  0  0
  -19.7239   19.8678  -13.4918 S   0  0  0  0  0  0
  -18.6060   20.7661  -13.7507 O   0  0  0  0  0  0
  -19.6392   18.9064  -12.4122 O   0  0  0  0  0  0
  -19.9464   18.9777  -15.0491 C   0  0  0  0  0  0
  -21.1710   18.2758  -14.9974 C   0  0  0  0  0  0
  -21.5434   17.4810  -13.8951 C   0  0  0  0  0  0
  -22.8066   16.9396  -13.8169 C   0  0  0  0  0  0
  -23.1357   16.2033  -12.7506 F   0  0  0  0  0  0
  -23.7207   17.1683  -14.8256 C   0  0  0  0  0  0
  -23.3338   17.8951  -15.9547 C   0  0  0  0  0  0
  -22.0567   18.4185  -16.0749 C   0  0  0  0  0  0
  -21.7113   19.0602  -17.1898 N   0  0  0  0  0  0
  -20.4206   19.4539  -17.2995 C   0  0  0  0  0  0
  -19.4487   19.3806  -16.2817 C   0  0  0  0  0  0
  -18.0458   19.5407  -16.8019 C   0  0  0  0  0  0
  -17.9821   20.2747  -17.8028 O   0  0  0  0  0  0
  -16.7909   19.1608  -16.1599 N   0  0  0  0  0  0
  -17.0631   17.4315  -15.8680 C   0  0  0  0  0  0
  -16.1752   16.1903  -16.8982 C   0  0  0  0  0  0
  -14.7059   16.5148  -17.6135 C   0  0  0  0  0  0
  -14.0307   18.2104  -17.9336 C   0  0  0  0  0  0
  -15.0149   19.7940  -16.6136 C   0  0  0  0  0  0
  1  2  1  0  0  0
  2  3  1  0  0  0
  3  4  1  0  0  0
  4  5  2  0  0  0
  4  9  1  0  0  0
  5  6  1  0  0  0
  6  7  2  0  0  0
  7  8  1  0  0  0
  7 10  1  0  0  0
  8  9  2  0  0  0
 10 11  2  0  0  0
 10 12  2  0  0  0
 10 13  1  0  0  0
 13 14  2  0  0  0
 13 23  1  0  0  0
 14 15  1  0  0  0
 14 20  1  0  0  0
 15 16  2  0  0  0
 16 17  1  0  0  0
 16 18  1  0  0  0
 18 19  2  0  0  0
 19 20  1  0  0  0
 20 21  2  0  0  0
 21 22  1  0  0  0
 22 23  2  0  0  0
 23 24  1  0  0  0
 24 25  2  0  0  0
 24 26  1  0  0  0
 26 27  1  0  0  0
 26 31  1  0  0  0
 27 28  1  0  0  0
 28 29  1  0  0  0
 29 30  1  0  0  0
 30 31  1  0  0  0
M  END
>  <CHROM.0>
179.01766866,62.96096463,-9.57861040,-60.31271140,167.70856691,179.06900941
-156.28125277,-165.87557239

>  <CHROM.1>
59.77532426,173.09040046,-4.38141285,-56.40336139,-160.42067798,56.49273517
-20.38266311,19.60519998,-14.17300399,-2.40981397,-0.40386483,-2.53206112

>  <Name>
F3411-7832

>  <RI>
3.49863e+07

>  <Rbt.Current_Directory>
/home/adria/Escritorio/rDock_CMTR_LC/2pxcA_model/inputs_sah

>  <Rbt.Executable>
rbdock ($Id: //depot/dev/client3/rdock/2013.1/src/exe/rbdock.cxx#4 $)

>  <Rbt.Library>
libRbt.so (2013.1, Build901 2013/11/27)

>  <Rbt.Parameter_File>
/home/adria/Escritorio/rDock_2013.1_src/data/scripts/dock.prm

>  <Rbt.Receptor>
sah_rdock.prm

>  <SCORE>
-281.541

>  <SCORE.INTER>
-15.0371

>  <SCORE.INTER.CONST>
1

>  <SCORE.INTER.POLAR>
-0.848528

>  <SCORE.INTER.REPUL>
0.153286

>  <SCORE.INTER.ROT>
6

>  <SCORE.INTER.VDW>
-24.3185

>  <SCORE.INTER.norm>
-0.485066

>  <SCORE.INTRA>
-264.874

>  <SCORE.INTRA.DIHEDRAL>
0.158023

>  <SCORE.INTRA.DIHEDRAL.0>
5.956

>  <SCORE.INTRA.POLAR>
0

>  <SCORE.INTRA.POLAR.0>
0

>  <SCORE.INTRA.REPUL>
0

>  <SCORE.INTRA.REPUL.0>
0

>  <SCORE.INTRA.VDW>
-264.953

>  <SCORE.INTRA.VDW.0>
262.356

>  <SCORE.INTRA.norm>
-8.54434

>  <SCORE.RESTR>
0

>  <SCORE.RESTR.CAVITY>
0

>  <SCORE.RESTR.norm>
0

>  <SCORE.SYSTEM>
-1.62986

>  <SCORE.SYSTEM.CONST>
0

>  <SCORE.SYSTEM.DIHEDRAL>
5.65348

>  <SCORE.SYSTEM.POLAR>
-4.23045

>  <SCORE.SYSTEM.VDW>
9.92693

>  <SCORE.SYSTEM.norm>
-0.0525762

>  <SCORE.heavy>
31

>  <SCORE.norm>
-9.08198

$$$$
F3411-7832
  rDOCK(R)          3D
libRbt.so/2013.1/901 2013/11/27
 31 34  0  0  0  0  0  0  0  0999 V2000
  -21.1882   25.9731  -10.6626 C   0  0  0  0  0  0
  -22.2928   25.8544  -11.8449 C   0  0  0  0  0  0
  -23.1394   24.5069  -12.5225 C   0  0  0  0  0  0
  -22.5113   23.1078  -13.2787 C   0  0  0  0  0  0
  -23.2745   21.7462  -12.5842 C   0  0  0  0  0  0
  -22.3403   20.2146  -11.7143 C   0  0  0  0  0  0
  -20.6127   20.1194  -12.2556 C   0  0  0  0  0  0
  -19.9924   21.4741  -13.2262 C   0  0  0  0  0  0
  -20.9047   22.9053  -13.6544 C   0  0  0  0  0  0
  -19.9529   18.5720  -12.8400 S   0  0  0  0  0  0
  -18.5480   18.8750  -13.0808 O   0  0  0  0  0  0
  -20.3148   17.5650  -11.8642 O   0  0  0  0  0  0
  -20.5808   18.0681  -14.4582 C   0  0  0  0  0  0
  -21.9891   18.1751  -14.4499 C   0  0  0  0  0  0
  -22.7828   17.6559  -13.4079 C   0  0  0  0  0  0
  -24.1339   17.9151  -13.3606 C   0  0  0  0  0  0
  -24.8576   17.4220  -12.3504 F   0  0  0  0  0  0
  -24.7250   18.6854  -14.3417 C   0  0  0  0  0  0
  -23.9566   19.1422  -15.4157 C   0  0  0  0  0  0
  -22.6025   18.8632  -15.5063 C   0  0  0  0  0  0
  -21.9167   19.2723  -16.5722 N   0  0  0  0  0  0
  -20.6247   18.8781  -16.6623 C   0  0  0  0  0  0
  -19.8989   18.2027  -15.6608 C   0  0  0  0  0  0
  -18.6305   17.5803  -16.1788 C   0  0  0  0  0  0
  -18.2500   16.6162  -15.4930 O   0  0  0  0  0  0
  -17.9676   17.8032  -17.4602 N   0  0  0  0  0  0
  -17.1491   19.3491  -17.1603 C   0  0  0  0  0  0
  -15.3222   19.3750  -16.9322 C   0  0  0  0  0  0
  -14.3252   18.2202  -17.6017 C   0  0  0  0  0  0
  -14.8732   16.5454  -18.1745 C   0  0  0  0  0  0
  -17.1201   16.4648  -18.5788 C   0  0  0  0  0  0
  1  2  1  0  0  0
  2  3  1  0  0  0
  3  4  1  0  0  0
  4  5  2  0  0  0
  4  9  1  0  0  0
  5  6  1  0  0  0
  6  7  2  0  0  0
  7  8  1  0  0  0
  7 10  1  0  0  0
  8  9  2  0  0  0
 10 11  2  0  0  0
 10 12  2  0  0  0
 10 13  1  0  0  0
 13 14  2  0  0  0
 13 23  1  0  0  0
 14 15  1  0  0  0
 14 20  1  0  0  0
 15 16  2  0  0  0
 16 17  1  0  0  0
 16 18  1  0  0  0
 18 19  2  0  0  0
 19 20  1  0  0  0
 20 21  2  0  0  0
 21 22  1  0  0  0
 22 23  2  0  0  0
 23 24  1  0  0  0
 24 25  2  0  0  0
 24 26  1  0  0  0
 26 27  1  0  0  0
 26 31  1  0  0  0
 27 28  1  0  0  0
 28 29  1  0  0  0
 29 30  1  0  0  0
 30 31  1  0  0  0
M  END
>  <CHROM.0>
-59.88440902,-70.65158279,-130.31284863,65.68119577,-29.88394477,60.04019176
82.96564492,-160.73081405

>  <CHROM.1>
-59.03989269,131.17092233,-176.06857043,-49.01159494,13.39231135,78.71265578
-20.48420941,19.45712782,-14.39383671,-2.40525919,-0.42026001,-2.76160102

>  <Name>
F3411-7832

>  <RI>
3.49863e+07

>  <Rbt.Current_Directory>
/home/adria/Escritorio/rDock_CMTR_LC/2pxcA_model/inputs_sah

>  <Rbt.Executable>
rbdock ($Id: //depot/dev/client3/rdock/2013.1/src/exe/rbdock.cxx#4 $)

>  <Rbt.Library>
libRbt.so (2013.1, Build901 2013/11/27)

>  <Rbt.Parameter_File>
/home/adria/Escritorio/rDock_2013.1_src/data/scripts/dock.prm

>  <Rbt.Receptor>
sah_rdock.prm

>  <SCORE>
-291.899

>  <SCORE.INTER>
-15.9129

>  <SCORE.INTER.CONST>
1

>  <SCORE.INTER.POLAR>
-0.301332

>  <SCORE.INTER.REPUL>
0.0400661

>  <SCORE.INTER.ROT>
6

>  <SCORE.INTER.VDW>
-26.4887

>  <SCORE.INTER.norm>
-0.51332

>  <SCORE.INTRA>
-268.948

>  <SCORE.INTRA.DIHEDRAL>
-3.27635

>  <SCORE.INTRA.DIHEDRAL.0>
5.956

>  <SCORE.INTRA.POLAR>
0

>  <SCORE.INTRA.POLAR.0>
0

>  <SCORE.INTRA.REPUL>
0

>  <SCORE.INTRA.REPUL.0>
0

>  <SCORE.INTRA.VDW>
-267.31

>  <SCORE.INTRA.VDW.0>
262.356

>  <SCORE.INTRA.norm>
-8.67575

>  <SCORE.RESTR>
0

>  <SCORE.RESTR.CAVITY>
0

>  <SCORE.RESTR.norm>
0

>  <SCORE.SYSTEM>
-7.03749

>  <SCORE.SYSTEM.CONST>
0

>  <SCORE.SYSTEM.DIHEDRAL>
9.34426

>  <SCORE.SYSTEM.POLAR>
-4.47571

>  <SCORE.SYSTEM.REPUL>
0.0340749

>  <SCORE.SYSTEM.VDW>
3.33743

>  <SCORE.SYSTEM.norm>
-0.227016

>  <SCORE.heavy>
31

>  <SCORE.norm>
-9.41608

$$$$
F3411-7832
  rDOCK(R)          3D
libRbt.so/2013.1/901 2013/11/27
 31 34  0  0  0  0  0  0  0  0999 V2000
  -17.4822   16.7655  -16.9817 C   0  0  0  0  0  0
  -17.9492   18.2378  -17.4780 C   0  0  0  0  0  0
  -17.7028   19.8224  -16.8300 C   0  0  0  0  0  0
  -18.1995   20.4611  -15.3236 C   0  0  0  0  0  0
  -18.8769   19.1868  -14.4091 C   0  0  0  0  0  0
  -20.7129   19.1695  -13.6319 C   0  0  0  0  0  0
  -21.3669   20.8535  -13.4810 C   0  0  0  0  0  0
  -20.4246   22.1590  -14.2359 C   0  0  0  0  0  0
  -18.9479   21.9350  -15.1488 C   0  0  0  0  0  0
  -22.0677   21.3951  -11.9360 S   0  0  0  0  0  0
  -22.9103   20.2748  -11.5379 O   0  0  0  0  0  0
  -20.9629   21.8000  -11.0919 O   0  0  0  0  0  0
  -23.2183   22.7799  -12.0947 C   0  0  0  0  0  0
  -22.6107   23.9361  -11.5571 C   0  0  0  0  0  0
  -21.9712   23.9425  -10.3016 C   0  0  0  0  0  0
  -21.2600   25.0443   -9.8833 C   0  0  0  0  0  0
  -20.6504   25.0141   -8.6938 F   0  0  0  0  0  0
  -21.1720   26.1588  -10.6930 C   0  0  0  0  0  0
  -21.8639   26.1853  -11.9068 C   0  0  0  0  0  0
  -22.6175   25.1038  -12.3331 C   0  0  0  0  0  0
  -23.3042   25.1886  -13.4712 N   0  0  0  0  0  0
  -24.1098   24.1464  -13.7840 C   0  0  0  0  0  0
  -24.1730   22.9194  -13.0940 C   0  0  0  0  0  0
  -25.3988   22.1180  -13.4397 C   0  0  0  0  0  0
  -25.5254   21.9310  -14.6618 O   0  0  0  0  0  0
  -26.2722   21.3640  -12.5454 N   0  0  0  0  0  0
  -26.1214   19.7276  -13.2154 C   0  0  0  0  0  0
  -25.1481   18.4618  -12.2985 C   0  0  0  0  0  0
  -24.9483   18.5182  -10.6453 C   0  0  0  0  0  0
  -25.1773   20.0294   -9.5979 C   0  0  0  0  0  0
  -26.4654   21.6079  -10.6312 C   0  0  0  0  0  0
  1  2  1  0  0  0
  2  3  1  0  0  0
  3  4  1  0  0  0
  4  5  2  0  0  0
  4  9  1  0  0  0
  5  6  1  0  0  0
  6  7  2  0  0  0
  7  8  1  0  0  0
  7 10  1  0  0  0
  8  9  2  0  0  0
 10 11  2  0  0  0
 10 12  2  0  0  0
 10 13  1  0  0  0
 13 14  2  0  0  0
 13 23  1  0  0  0
 14 15  1  0  0  0
 14 20  1  0  0  0
 15 16  2  0  0  0
 16 17  1  0  0  0
 16 18  1  0  0  0
 18 19  2  0  0  0
 19 20  1  0  0  0
 20 21  2  0  0  0
 21 22  1  0  0  0
 22 23  2  0  0  0
 23 24  1  0  0  0
 24 25  2  0  0  0
 24 26  1  0  0  0
 26 27  1  0  0  0
 26 31  1  0  0  0
 27 28  1  0  0  0
 28 29  1  0  0  0
 29 30  1  0  0  0
 30 31  1  0  0  0
M  END
>  <CHROM.0>
-62.04133222,68.02970296,-45.67786122,62.28976015,168.01075638,-179.81016683
-157.66833432,-161.41458960

>  <CHROM.1>
-61.46400589,6.31911222,-44.97690267,-108.85141430,-137.23254458,-120.32312991
-22.23965253,21.75597420,-12.72868081,0.81526127,-0.37400843,-2.62855248

>  <Name>
F3411-7832

>  <RI>
3.49863e+07

>  <Rbt.Current_Directory>
/home/adria/Escritorio/rDock_CMTR_LC/2pxcA_model/inputs_sah

>  <Rbt.Executable>
rbdock ($Id: //depot/dev/client3/rdock/2013.1/src/exe/rbdock.cxx#4 $)

>  <Rbt.Library>
libRbt.so (2013.1, Build901 2013/11/27)

>  <Rbt.Parameter_File>
/home/adria/Escritorio/rDock_2013.1_src/data/scripts/dock.prm

>  <Rbt.Receptor>
sah_rdock.prm

>  <SCORE>
-278.242

>  <SCORE.INTER>
-13.8074

>  <SCORE.INTER.CONST>
1

>  <SCORE.INTER.POLAR>
-0.894427

>  <SCORE.INTER.REPUL>
0.0255385

>  <SCORE.INTER.ROT>
6

>  <SCORE.INTER.VDW>
-22.294

>  <SCORE.INTER.norm>
-0.445399

>  <SCORE.INTRA>
-262.029

>  <SCORE.INTRA.DIHEDRAL>
2.08012

>  <SCORE.INTRA.DIHEDRAL.0>
5.956

>  <SCORE.INTRA.POLAR>
0

>  <SCORE.INTRA.POLAR.0>
0

>  <SCORE.INTRA.REPUL>
0

>  <SCORE.INTRA.REPUL.0>
0

>  <SCORE.INTRA.VDW>
-263.069

>  <SCORE.INTRA.VDW.0>
262.356

>  <SCORE.INTRA.norm>
-8.45256

>  <SCORE.RESTR>
0

>  <SCORE.RESTR.CAVITY>
0

>  <SCORE.RESTR.norm>
0

>  <SCORE.SYSTEM>
-2.40505

>  <SCORE.SYSTEM.CONST>
0

>  <SCORE.SYSTEM.DIHEDRAL>
3.11356

>  <SCORE.SYSTEM.POLAR>
-3.64351

>  <SCORE.SYSTEM.VDW>
8.42611

>  <SCORE.SYSTEM.norm>
-0.0775823

>  <SCORE.heavy>
31

>  <SCORE.norm>
-8.97554

$$$$
F3411-7832
  rDOCK(R)          3D
libRbt.so/2013.1/901 2013/11/27
 31 34  0  0  0  0  0  0  0  0999 V2000
  -21.7738   19.8670  -11.2280 C   0  0  0  0  0  0
  -21.0972   21.0297  -12.1349 C   0  0  0  0  0  0
  -20.5956   21.0781  -13.7895 C   0  0  0  0  0  0
  -19.5729   20.0025  -14.6386 C   0  0  0  0  0  0
  -20.3503   19.5803  -16.1003 C   0  0  0  0  0  0
  -20.7696   17.7235  -16.6932 C   0  0  0  0  0  0
  -19.7280   16.5179  -15.8284 C   0  0  0  0  0  0
  -18.7307   17.1243  -14.4867 C   0  0  0  0  0  0
  -18.7162   18.7775  -13.9117 C   0  0  0  0  0  0
  -18.8468   15.2815  -16.7592 S   0  0  0  0  0  0
  -18.8228   14.1363  -15.8584 O   0  0  0  0  0  0
  -19.5062   15.1728  -18.0439 O   0  0  0  0  0  0
  -17.1022   15.6684  -17.0300 C   0  0  0  0  0  0
  -16.9560   17.0714  -17.1001 C   0  0  0  0  0  0
  -17.7901   17.8818  -17.8956 C   0  0  0  0  0  0
  -17.7147   19.2541  -17.8174 C   0  0  0  0  0  0
  -18.5307   19.9962  -18.5729 F   0  0  0  0  0  0
  -16.8129   19.8493  -16.9583 C   0  0  0  0  0  0
  -15.9339   19.0517  -16.2209 C   0  0  0  0  0  0
  -15.9640   17.6694  -16.3101 C   0  0  0  0  0  0
  -15.0746   16.9472  -15.6309 N   0  0  0  0  0  0
  -15.0782   15.6096  -15.8402 C   0  0  0  0  0  0
  -16.0323   14.8973  -16.5939 C   0  0  0  0  0  0
  -15.5759   13.5082  -16.9499 C   0  0  0  0  0  0
  -15.0178   12.9255  -16.0047 O   0  0  0  0  0  0
  -15.9135   12.7164  -18.1290 N   0  0  0  0  0  0
  -17.1385   11.6166  -17.4662 C   0  0  0  0  0  0
  -18.9087   11.8632  -17.9090 C   0  0  0  0  0  0
  -19.3770   12.5904  -19.3330 C   0  0  0  0  0  0
  -18.3007   13.6830  -20.3728 C   0  0  0  0  0  0
  -16.0790   13.3580  -19.9516 C   0  0  0  0  0  0
  1  2  1  0  0  0
  2  3  1  0  0  0
  3  4  1  0  0  0
  4  5  2  0  0  0
  4  9  1  0  0  0
  5  6  1  0  0  0
  6  7  2  0  0  0
  7  8  1  0  0  0
  7 10  1  0  0  0
  8  9  2  0  0  0
 10 11  2  0  0  0
 10 12  2  0  0  0
 10 13  1  0  0  0
 13 14  2  0  0  0
 13 23  1  0  0  0
 14 15  1  0  0  0
 14 20  1  0  0  0
 15 16  2  0  0  0
 16 17  1  0  0  0
 16 18  1  0  0  0
 18 19  2  0  0  0
 19 20  1  0  0  0
 20 21  2  0  0  0
 21 22  1  0  0  0
 22 23  2  0  0  0
 23 24  1  0  0  0
 24 25  2  0  0  0
 24 26  1  0  0  0
 26 27  1  0  0  0
 26 31  1  0  0  0
 27 28  1  0  0  0
 28 29  1  0  0  0
 29 30  1  0  0  0
 30 31  1  0  0  0
M  END
>  <CHROM.0>
-172.87789915,65.25848943,111.39673655,64.99491024,168.68352884,-178.27806083
-156.28058630,-157.05312840

>  <CHROM.1>
-52.25808567,131.09458066,-147.51537054,-30.84691266,-148.78704820,-101.53257668
-18.06464597,16.45214905,-16.53329418,1.95563341,0.39503916,0.35509742

>  <Name>
F3411-7832

>  <RI>
3.49863e+07

>  <Rbt.Current_Directory>
/home/adria/Escritorio/rDock_CMTR_LC/2pxcA_model/inputs_sah

>  <Rbt.Executable>
rbdock ($Id: //depot/dev/client3/rdock/2013.1/src/exe/rbdock.cxx#4 $)

>  <Rbt.Library>
libRbt.so (2013.1, Build901 2013/11/27)

>  <Rbt.Parameter_File>
/home/adria/Escritorio/rDock_2013.1_src/data/scripts/dock.prm

>  <Rbt.Receptor>
sah_rdock.prm

>  <SCORE>
-277.184

>  <SCORE.INTER>
-7.40014

>  <SCORE.INTER.CONST>
1

>  <SCORE.INTER.POLAR>
0

>  <SCORE.INTER.REPUL>
0

>  <SCORE.INTER.ROT>
6

>  <SCORE.INTER.VDW>
-18.8001

>  <SCORE.INTER.norm>
-0.238714

>  <SCORE.INTRA>
-268.123

>  <SCORE.INTRA.DIHEDRAL>
1.33079

>  <SCORE.INTRA.DIHEDRAL.0>
5.956

>  <SCORE.INTRA.POLAR>
0

>  <SCORE.INTRA.POLAR.0>
0

>  <SCORE.INTRA.REPUL>
0

>  <SCORE.INTRA.REPUL.0>
0

>  <SCORE.INTRA.VDW>
-268.788

>  <SCORE.INTRA.VDW.0>
262.356

>  <SCORE.INTRA.norm>
-8.64911

>  <SCORE.RESTR>
0.041297

>  <SCORE.RESTR.CAVITY>
0.041297

>  <SCORE.RESTR.norm>
0.00133216

>  <SCORE.SYSTEM>
-1.70309

>  <SCORE.SYSTEM.CONST>
0

>  <SCORE.SYSTEM.DIHEDRAL>
6.49563

>  <SCORE.SYSTEM.POLAR>
-4.2617

>  <SCORE.SYSTEM.VDW>
9.53889

>  <SCORE.SYSTEM.norm>
-0.0549383

>  <SCORE.heavy>
31

>  <SCORE.norm>
-8.94143

$$$$
F3411-7832
  rDOCK(R)          3D
libRbt.so/2013.1/901 2013/11/27
 31 34  0  0  0  0  0  0  0  0999 V2000
  -18.4104   14.7921  -15.1290 C   0  0  0  0  0  0
  -18.7708   15.4246  -16.5789 C   0  0  0  0  0  0
  -18.3881   16.9393  -17.3211 C   0  0  0  0  0  0
  -18.7812   18.5221  -16.8074 C   0  0  0  0  0  0
  -17.7150   18.9447  -15.5410 C   0  0  0  0  0  0
  -18.2617   19.5246  -13.7134 C   0  0  0  0  0  0
  -19.9713   20.1275  -13.7109 C   0  0  0  0  0  0
  -20.9168   19.8879  -15.1978 C   0  0  0  0  0  0
  -20.3393   19.0759  -16.6369 C   0  0  0  0  0  0
  -20.3534   21.7005  -12.9684 S   0  0  0  0  0  0
  -19.5368   21.7097  -11.7615 O   0  0  0  0  0  0
  -20.1436   22.7084  -13.9867 O   0  0  0  0  0  0
  -22.0489   21.8334  -12.3568 C   0  0  0  0  0  0
  -22.4080   23.1988  -12.3136 C   0  0  0  0  0  0
  -21.5782   24.1833  -11.7415 C   0  0  0  0  0  0
  -21.8932   25.5183  -11.8568 C   0  0  0  0  0  0
  -21.0774   26.4299  -11.3172 F   0  0  0  0  0  0
  -23.0332   25.9040  -12.5329 C   0  0  0  0  0  0
  -23.8970   24.9294  -13.0394 C   0  0  0  0  0  0
  -23.6220   23.5784  -12.9036 C   0  0  0  0  0  0
  -24.4967   22.6807  -13.3542 N   0  0  0  0  0  0
  -24.2308   21.3783  -13.0972 C   0  0  0  0  0  0
  -23.0418   20.8776  -12.5304 C   0  0  0  0  0  0
  -23.1826   19.4646  -12.0324 C   0  0  0  0  0  0
  -22.1522   18.7892  -12.1963 O   0  0  0  0  0  0
  -24.2392   18.8965  -11.2006 N   0  0  0  0  0  0
  -23.7772   19.5002   -9.5969 C   0  0  0  0  0  0
  -24.7637   20.8465   -8.8194 C   0  0  0  0  0  0
  -26.3720   21.0925   -9.1781 C   0  0  0  0  0  0
  -27.2299   20.4682  -10.6972 C   0  0  0  0  0  0
  -26.1149   18.7232  -11.6617 C   0  0  0  0  0  0
  1  2  1  0  0  0
  2  3  1  0  0  0
  3  4  1  0  0  0
  4  5  2  0  0  0
  4  9  1  0  0  0
  5  6  1  0  0  0
  6  7  2  0  0  0
  7  8  1  0  0  0
  7 10  1  0  0  0
  8  9  2  0  0  0
 10 11  2  0  0  0
 10 12  2  0  0  0
 10 13  1  0  0  0
 13 14  2  0  0  0
 13 23  1  0  0  0
 14 15  1  0  0  0
 14 20  1  0  0  0
 15 16  2  0  0  0
 16 17  1  0  0  0
 16 18  1  0  0  0
 18 19  2  0  0  0
 19 20  1  0  0  0
 20 21  2  0  0  0
 21 22  1  0  0  0
 22 23  2  0  0  0
 23 24  1  0  0  0
 24 25  2  0  0  0
 24 26  1  0  0  0
 26 27  1  0  0  0
 26 31  1  0  0  0
 27 28  1  0  0  0
 28 29  1  0  0  0
 29 30  1  0  0  0
 30 31  1  0  0  0
M  END
>  <CHROM.0>
-178.55102959,-166.06552993,-168.65265857,65.42244116,168.52031293,-176.02394060
-155.16243071,-158.37138460

>  <CHROM.1>
-60.35836018,77.65585474,-40.75059062,-156.04714012,-47.22573718,-77.56779902
-21.87381081,20.93326498,-12.92155743,0.78286201,-0.59379050,-2.96453755

>  <Name>
F3411-7832

>  <RI>
3.49863e+07

>  <Rbt.Current_Directory>
/home/adria/Escritorio/rDock_CMTR_LC/2pxcA_model/inputs_sah

>  <Rbt.Executable>
rbdock ($Id: //depot/dev/client3/rdock/2013.1/src/exe/rbdock.cxx#4 $)

>  <Rbt.Library>
libRbt.so (2013.1, Build901 2013/11/27)

>  <Rbt.Parameter_File>
/home/adria/Escritorio/rDock_2013.1_src/data/scripts/dock.prm

>  <Rbt.Receptor>
sah_rdock.prm

>  <SCORE>
-273.683

>  <SCORE.INTER>
-8.05988

>  <SCORE.INTER.CONST>
1

>  <SCORE.INTER.POLAR>
0

>  <SCORE.INTER.REPUL>
0.105899

>  <SCORE.INTER.ROT>
6

>  <SCORE.INTER.VDW>
-19.9894

>  <SCORE.INTER.norm>
-0.259996

>  <SCORE.INTRA>
-264.709

>  <SCORE.INTRA.DIHEDRAL>
4.95794

>  <SCORE.INTRA.DIHEDRAL.0>
5.956

>  <SCORE.INTRA.POLAR>
0

>  <SCORE.INTRA.POLAR.0>
0

>  <SCORE.INTRA.REPUL>
0

>  <SCORE.INTRA.REPUL.0>
0

>  <SCORE.INTRA.VDW>
-267.188

>  <SCORE.INTRA.VDW.0>
262.356

>  <SCORE.INTRA.norm>
-8.539

>  <SCORE.RESTR>
0

>  <SCORE.RESTR.CAVITY>
0

>  <SCORE.RESTR.norm>
0

>  <SCORE.SYSTEM>
-0.913995

>  <SCORE.SYSTEM.CONST>
0

>  <SCORE.SYSTEM.DIHEDRAL>
4.02119

>  <SCORE.SYSTEM.POLAR>
-3.57788

>  <SCORE.SYSTEM.VDW>
9.2402

>  <SCORE.SYSTEM.norm>
-0.0294837

>  <SCORE.heavy>
31

>  <SCORE.norm>
-8.82848

$$$$
F3411-7832
  rDOCK(R)          3D
libRbt.so/2013.1/901 2013/11/27
 31 34  0  0  0  0  0  0  0  0999 V2000
  -24.9867   22.9064   -7.8975 C   0  0  0  0  0  0
  -24.8536   23.5814   -9.3668 C   0  0  0  0  0  0
  -25.1662   22.9846  -10.9598 C   0  0  0  0  0  0
  -24.4050   21.7054  -11.8012 C   0  0  0  0  0  0
  -23.9673   20.5115  -10.6601 C   0  0  0  0  0  0
  -22.1258   19.8016  -10.3770 C   0  0  0  0  0  0
  -21.0857   20.1043  -11.8306 C   0  0  0  0  0  0
  -21.7588   21.1454  -13.1055 C   0  0  0  0  0  0
  -23.3205   21.9333  -13.0403 C   0  0  0  0  0  0
  -20.1462   18.7679  -12.5397 S   0  0  0  0  0  0
  -18.8544   19.3792  -12.8246 O   0  0  0  0  0  0
  -20.2283   17.6580  -11.6133 O   0  0  0  0  0  0
  -20.7445   18.2238  -14.1561 C   0  0  0  0  0  0
  -22.1546   18.3039  -14.1664 C   0  0  0  0  0  0
  -22.9510   17.7878  -13.1249 C   0  0  0  0  0  0
  -24.3072   18.0218  -13.0983 C   0  0  0  0  0  0
  -25.0338   17.5327  -12.0881 F   0  0  0  0  0  0
  -24.9008   18.7633  -14.0999 C   0  0  0  0  0  0
  -24.1281   19.2159  -15.1726 C   0  0  0  0  0  0
  -22.7680   18.9614  -15.2421 C   0  0  0  0  0  0
  -22.0771   19.3649  -16.3069 N   0  0  0  0  0  0
  -20.7768   18.9939  -16.3746 C   0  0  0  0  0  0
  -20.0506   18.3503  -15.3527 C   0  0  0  0  0  0
  -18.7644   17.7434  -15.8444 C   0  0  0  0  0  0
  -18.3476   16.8324  -15.1089 O   0  0  0  0  0  0
  -18.1163   17.9169  -17.1409 N   0  0  0  0  0  0
  -17.3793   19.5195  -16.9458 C   0  0  0  0  0  0
  -15.5558   19.6553  -16.7291 C   0  0  0  0  0  0
  -14.5009   18.5130  -17.3276 C   0  0  0  0  0  0
  -14.9616   16.7783  -17.7882 C   0  0  0  0  0  0
  -17.2019   16.5547  -18.1750 C   0  0  0  0  0  0
  1  2  1  0  0  0
  2  3  1  0  0  0
  3  4  1  0  0  0
  4  5  2  0  0  0
  4  9  1  0  0  0
  5  6  1  0  0  0
  6  7  2  0  0  0
  7  8  1  0  0  0
  7 10  1  0  0  0
  8  9  2  0  0  0
 10 11  2  0  0  0
 10 12  2  0  0  0
 10 13  1  0  0  0
 13 14  2  0  0  0
 13 23  1  0  0  0
 14 15  1  0  0  0
 14 20  1  0  0  0
 15 16  2  0  0  0
 16 17  1  0  0  0
 16 18  1  0  0  0
 18 19  2  0  0  0
 19 20  1  0  0  0
 20 21  2  0  0  0
 21 22  1  0  0  0
 22 23  2  0  0  0
 23 24  1  0  0  0
 24 25  2  0  0  0
 24 26  1  0  0  0
 26 27  1  0  0  0
 26 31  1  0  0  0
 27 28  1  0  0  0
 28 29  1  0  0  0
 29 30  1  0  0  0
 30 31  1  0  0  0
M  END
>  <CHROM.0>
-60.10307063,64.91242977,76.32628478,-145.24605644,167.34813650,-178.23882480
-156.51536202,-43.58659831

>  <CHROM.1>
-63.47967781,33.61073268,-137.31199315,-36.37226389,10.83099524,77.53514550
-21.07671312,19.22852920,-13.79049414,-2.42137077,-0.16552523,-2.25234147

>  <Name>
F3411-7832

>  <RI>
3.49863e+07

>  <Rbt.Current_Directory>
/home/adria/Escritorio/rDock_CMTR_LC/2pxcA_model/inputs_sah

>  <Rbt.Executable>
rbdock ($Id: //depot/dev/client3/rdock/2013.1/src/exe/rbdock.cxx#4 $)

>  <Rbt.Library>
libRbt.so (2013.1, Build901 2013/11/27)

>  <Rbt.Parameter_File>
/home/adria/Escritorio/rDock_2013.1_src/data/scripts/dock.prm

>  <Rbt.Receptor>
sah_rdock.prm

>  <SCORE>
-275.832

>  <SCORE.INTER>
-9.98578

>  <SCORE.INTER.CONST>
1

>  <SCORE.INTER.POLAR>
-0.268224

>  <SCORE.INTER.REPUL>
0.203307

>  <SCORE.INTER.ROT>
6

>  <SCORE.INTER.VDW>
-21.4903

>  <SCORE.INTER.norm>
-0.322122

>  <SCORE.INTRA>
-268.897

>  <SCORE.INTRA.DIHEDRAL>
-1.12534

>  <SCORE.INTRA.DIHEDRAL.0>
5.956

>  <SCORE.INTRA.POLAR>
0

>  <SCORE.INTRA.POLAR.0>
0

>  <SCORE.INTRA.REPUL>
0

>  <SCORE.INTRA.REPUL.0>
0

>  <SCORE.INTRA.VDW>
-268.334

>  <SCORE.INTRA.VDW.0>
262.356

>  <SCORE.INTRA.norm>
-8.67409

>  <SCORE.RESTR>
0

>  <SCORE.RESTR.CAVITY>
0

>  <SCORE.RESTR.norm>
0

>  <SCORE.SYSTEM>
3.05042

>  <SCORE.SYSTEM.CONST>
0

>  <SCORE.SYSTEM.DIHEDRAL>
9.47047

>  <SCORE.SYSTEM.POLAR>
-3.38998

>  <SCORE.SYSTEM.REPUL>
0.0281

>  <SCORE.SYSTEM.VDW>
9.7006

>  <SCORE.SYSTEM.norm>
0.0984005

>  <SCORE.heavy>
31

>  <SCORE.norm>
-8.89781

$$$$
F3411-7832
  rDOCK(R)          3D
libRbt.so/2013.1/901 2013/11/27
 31 34  0  0  0  0  0  0  0  0999 V2000
  -20.0899   25.2372  -10.2941 C   0  0  0  0  0  0
  -21.5858   24.9129  -10.8319 C   0  0  0  0  0  0
  -22.1928   24.4292  -12.3776 C   0  0  0  0  0  0
  -21.8552   23.0128  -13.2741 C   0  0  0  0  0  0
  -22.6643   21.7089  -12.5230 C   0  0  0  0  0  0
  -21.8012   20.0360  -11.8659 C   0  0  0  0  0  0
  -20.1967   19.7778  -12.6692 C   0  0  0  0  0  0
  -19.5696   21.1062  -13.6713 C   0  0  0  0  0  0
  -20.3577   22.6525  -13.8994 C   0  0  0  0  0  0
  -19.8203   18.2011  -13.4066 S   0  0  0  0  0  0
  -18.3937   18.2939  -13.6889 O   0  0  0  0  0  0
  -20.3094   17.1845  -12.4985 O   0  0  0  0  0  0
  -20.5769   17.9472  -15.0282 C   0  0  0  0  0  0
  -21.9811   17.9420  -14.8759 C   0  0  0  0  0  0
  -22.6331   17.1853  -13.8821 C   0  0  0  0  0  0
  -23.9856   17.3269  -13.6686 C   0  0  0  0  0  0
  -24.5730   16.6070  -12.7072 F   0  0  0  0  0  0
  -24.7177   18.2120  -14.4342 C   0  0  0  0  0  0
  -24.0902   18.9111  -15.4686 C   0  0  0  0  0  0
  -22.7380   18.7581  -15.7284 C   0  0  0  0  0  0
  -22.1889   19.4026  -16.7566 N   0  0  0  0  0  0
  -20.8913   19.1317  -17.0317 C   0  0  0  0  0  0
  -20.0291   18.3465  -16.2406 C   0  0  0  0  0  0
  -18.7844   17.9263  -16.9746 C   0  0  0  0  0  0
  -18.5078   18.6764  -17.9262 O   0  0  0  0  0  0
  -17.7816   16.9445  -16.5727 N   0  0  0  0  0  0
  -18.4033   15.4774  -17.3541 C   0  0  0  0  0  0
  -17.5413   14.8090  -18.8375 C   0  0  0  0  0  0
  -15.9190   15.0673  -19.1160 C   0  0  0  0  0  0
  -14.9097   16.4165  -18.3450 C   0  0  0  0  0  0
  -15.8678   17.2270  -16.4361 C   0  0  0  0  0  0
  1  2  1  0  0  0
  2  3  1  0  0  0
  3  4  1  0  0  0
  4  5  2  0  0  0
  4  9  1  0  0  0
  5  6  1  0  0  0
  6  7  2  0  0  0
  7  8  1  0  0  0
  7 10  1  0  0  0
  8  9  2  0  0  0
 10 11  2  0  0  0
 10 12  2  0  0  0
 10 13  1  0  0  0
 13 14  2  0  0  0
 13 23  1  0  0  0
 14 15  1  0  0  0
 14 20  1  0  0  0
 15 16  2  0  0  0
 16 17  1  0  0  0
 16 18  1  0  0  0
 18 19  2  0  0  0
 19 20  1  0  0  0
 20 21  2  0  0  0
 21 22  1  0  0  0
 22 23  2  0  0  0
 23 24  1  0  0  0
 24 25  2  0  0  0
 24 26  1  0  0  0
 26 27  1  0  0  0
 26 31  1  0  0  0
 27 28  1  0  0  0
 28 29  1  0  0  0
 29 30  1  0  0  0
 30 31  1  0  0  0
M  END
>  <CHROM.0>
-61.77543207,-70.57011925,-43.71287351,64.37615846,-31.18645109,59.18697469
-36.92078281,-165.50055592

>  <CHROM.1>
61.94874135,73.65742729,-168.87035288,-63.81427002,-168.27868726,92.62850938
-20.42348352,18.92621662,-14.70696089,-2.12818495,-0.34909072,-2.61287648

>  <Name>
F3411-7832

>  <RI>
3.49863e+07

>  <Rbt.Current_Directory>
/home/adria/Escritorio/rDock_CMTR_LC/2pxcA_model/inputs_sah

>  <Rbt.Executable>
rbdock ($Id: //depot/dev/client3/rdock/2013.1/src/exe/rbdock.cxx#4 $)

>  <Rbt.Library>
libRbt.so (2013.1, Build901 2013/11/27)

>  <Rbt.Parameter_File>
/home/adria/Escritorio/rDock_2013.1_src/data/scripts/dock.prm

>  <Rbt.Receptor>
sah_rdock.prm

>  <SCORE>
-289.955

>  <SCORE.INTER>
-15.3006

>  <SCORE.INTER.CONST>
1

>  <SCORE.INTER.POLAR>
-0.600059

>  <SCORE.INTER.REPUL>
0.00193106

>  <SCORE.INTER.ROT>
6

>  <SCORE.INTER.VDW>
-24.67

>  <SCORE.INTER.norm>
-0.493566

>  <SCORE.INTRA>
-267.121

>  <SCORE.INTRA.DIHEDRAL>
-2.68241

>  <SCORE.INTRA.DIHEDRAL.0>
5.956

>  <SCORE.INTRA.POLAR>
0

>  <SCORE.INTRA.POLAR.0>
0

>  <SCORE.INTRA.REPUL>
0

>  <SCORE.INTRA.REPUL.0>
0

>  <SCORE.INTRA.VDW>
-265.78

>  <SCORE.INTRA.VDW.0>
262.356

>  <SCORE.INTRA.norm>
-8.61681

>  <SCORE.RESTR>
0

>  <SCORE.RESTR.CAVITY>
0

>  <SCORE.RESTR.norm>
0

>  <SCORE.SYSTEM>
-7.53352

>  <SCORE.SYSTEM.CONST>
0

>  <SCORE.SYSTEM.DIHEDRAL>
6.10372

>  <SCORE.SYSTEM.POLAR>
-3.96413

>  <SCORE.SYSTEM.REPUL>
0.0339107

>  <SCORE.SYSTEM.VDW>
2.7231

>  <SCORE.SYSTEM.norm>
-0.243017

>  <SCORE.heavy>
31

>  <SCORE.norm>
-9.35339

$$$$
F3411-7832
  rDOCK(R)          3D
libRbt.so/2013.1/901 2013/11/27
 31 34  0  0  0  0  0  0  0  0999 V2000
  -17.2641   13.5572  -19.8415 C   0  0  0  0  0  0
  -17.4321   14.6319  -18.6378 C   0  0  0  0  0  0
  -16.5301   16.0390  -18.1930 C   0  0  0  0  0  0
  -16.7814   17.1130  -16.8863 C   0  0  0  0  0  0
  -18.0439   16.4833  -15.9226 C   0  0  0  0  0  0
  -19.7264   17.4425  -15.4490 C   0  0  0  0  0  0
  -19.5240   19.2342  -15.6370 C   0  0  0  0  0  0
  -18.0257   19.8035  -16.4072 C   0  0  0  0  0  0
  -16.7623   18.7683  -17.0366 C   0  0  0  0  0  0
  -20.0033   20.3224  -14.3113 S   0  0  0  0  0  0
  -19.2422   19.8221  -13.1738 O   0  0  0  0  0  0
  -19.7904   21.6758  -14.7802 O   0  0  0  0  0  0
  -21.7284   20.1464  -13.8016 C   0  0  0  0  0  0
  -22.3547   19.2022  -14.6449 C   0  0  0  0  0  0
  -22.2367   19.2433  -16.0483 C   0  0  0  0  0  0
  -22.7329   18.2195  -16.8233 C   0  0  0  0  0  0
  -22.5912   18.2792  -18.1514 F   0  0  0  0  0  0
  -23.3577   17.1420  -16.2282 C   0  0  0  0  0  0
  -23.5416   17.1307  -14.8430 C   0  0  0  0  0  0
  -23.0850   18.1668  -14.0445 C   0  0  0  0  0  0
  -23.3264   18.1432  -12.7349 N   0  0  0  0  0  0
  -22.9557   19.2317  -12.0203 C   0  0  0  0  0  0
  -22.2045   20.3196  -12.5082 C   0  0  0  0  0  0
  -22.2669   21.5229  -11.6068 C   0  0  0  0  0  0
  -22.3396   21.2220  -10.4031 O   0  0  0  0  0  0
  -22.0146   22.9214  -11.9411 N   0  0  0  0  0  0
  -23.5118   23.6868  -11.3737 C   0  0  0  0  0  0
  -23.4804   24.7083   -9.8420 C   0  0  0  0  0  0
  -22.1030   25.4866   -9.3195 C   0  0  0  0  0  0
  -20.3765   25.0509   -9.8317 C   0  0  0  0  0  0
  -20.3291   23.8678  -11.7854 C   0  0  0  0  0  0
  1  2  1  0  0  0
  2  3  1  0  0  0
  3  4  1  0  0  0
  4  5  2  0  0  0
  4  9  1  0  0  0
  5  6  1  0  0  0
  6  7  2  0  0  0
  7  8  1  0  0  0
  7 10  1  0  0  0
  8  9  2  0  0  0
 10 11  2  0  0  0
 10 12  2  0  0  0
 10 13  1  0  0  0
 13 14  2  0  0  0
 13 23  1  0  0  0
 14 15  1  0  0  0
 14 20  1  0  0  0
 15 16  2  0  0  0
 16 17  1  0  0  0
 16 18  1  0  0  0
 18 19  2  0  0  0
 19 20  1  0  0  0
 20 21  2  0  0  0
 21 22  1  0  0  0
 22 23  2  0  0  0
 23 24  1  0  0  0
 24 25  2  0  0  0
 24 26  1  0  0  0
 26 27  1  0  0  0
 26 31  1  0  0  0
 27 28  1  0  0  0
 28 29  1  0  0  0
 29 30  1  0  0  0
 30 31  1  0  0  0
M  END
>  <CHROM.0>
-61.87090590,69.35179839,-47.50602448,-57.67549442,167.87753486,-174.46687274
81.62599014,-161.75033271

>  <CHROM.1>
-179.50353531,5.67657156,55.65082000,-3.19618326,-157.45775875,125.91525810
-20.78662879,19.68925082,-14.33700914,-1.20260078,0.22142701,0.68954802

>  <Name>
F3411-7832

>  <RI>
3.49863e+07

>  <Rbt.Current_Directory>
/home/adria/Escritorio/rDock_CMTR_LC/2pxcA_model/inputs_sah

>  <Rbt.Executable>
rbdock ($Id: //depot/dev/client3/rdock/2013.1/src/exe/rbdock.cxx#4 $)

>  <Rbt.Library>
libRbt.so (2013.1, Build901 2013/11/27)

>  <Rbt.Parameter_File>
/home/adria/Escritorio/rDock_2013.1_src/data/scripts/dock.prm

>  <Rbt.Receptor>
sah_rdock.prm

>  <SCORE>
-276.902

>  <SCORE.INTER>
-10.1924

>  <SCORE.INTER.CONST>
1

>  <SCORE.INTER.POLAR>
0

>  <SCORE.INTER.REPUL>
0.07944

>  <SCORE.INTER.ROT>
6

>  <SCORE.INTER.VDW>
-21.9896

>  <SCORE.INTER.norm>
-0.328787

>  <SCORE.INTRA>
-264.842

>  <SCORE.INTRA.DIHEDRAL>
-1.16147

>  <SCORE.INTRA.DIHEDRAL.0>
5.956

>  <SCORE.INTRA.POLAR>
0

>  <SCORE.INTRA.POLAR.0>
0

>  <SCORE.INTRA.REPUL>
0

>  <SCORE.INTRA.REPUL.0>
0

>  <SCORE.INTRA.VDW>
-264.261

>  <SCORE.INTRA.VDW.0>
262.356

>  <SCORE.INTRA.norm>
-8.54329

>  <SCORE.RESTR>
0

>  <SCORE.RESTR.CAVITY>
0

>  <SCORE.RESTR.norm>
0

>  <SCORE.SYSTEM>
-1.86776

>  <SCORE.SYSTEM.CONST>
0

>  <SCORE.SYSTEM.DIHEDRAL>
3.12174

>  <SCORE.SYSTEM.POLAR>
-3.54644

>  <SCORE.SYSTEM.VDW>
8.62928

>  <SCORE.SYSTEM.norm>
-0.0602502

>  <SCORE.heavy>
31

>  <SCORE.norm>
-8.93232

$$$$
F3411-7832
  rDOCK(R)          3D
libRbt.so/2013.1/901 2013/11/27
 31 34  0  0  0  0  0  0  0  0999 V2000
  -23.8356   22.8277   -8.1327 C   0  0  0  0  0  0
  -24.6805   23.0346   -9.5021 C   0  0  0  0  0  0
  -24.3915   23.9782  -10.9225 C   0  0  0  0  0  0
  -23.1586   23.8122  -12.0956 C   0  0  0  0  0  0
  -23.5051   22.4250  -13.0309 C   0  0  0  0  0  0
  -22.2832   20.8715  -13.2928 C   0  0  0  0  0  0
  -20.5659   21.3331  -12.9406 C   0  0  0  0  0  0
  -20.2895   22.9347  -12.2192 C   0  0  0  0  0  0
  -21.5468   24.0715  -11.7822 C   0  0  0  0  0  0
  -19.2862   20.9426  -14.1160 S   0  0  0  0  0  0
  -19.4393   21.9734  -15.1346 O   0  0  0  0  0  0
  -18.0476   20.8444  -13.3722 O   0  0  0  0  0  0
  -19.5544   19.3943  -15.0091 C   0  0  0  0  0  0
  -20.5430   18.6471  -14.3314 C   0  0  0  0  0  0
  -20.5123   18.4366  -12.9386 C   0  0  0  0  0  0
  -21.5722   17.8362  -12.2974 C   0  0  0  0  0  0
  -21.5206   17.6649  -10.9724 F   0  0  0  0  0  0
  -22.6763   17.4291  -13.0189 C   0  0  0  0  0  0
  -22.6813   17.5697  -14.4092 C   0  0  0  0  0  0
  -21.6111   18.1363  -15.0824 C   0  0  0  0  0  0
  -21.6326   18.2044  -16.4124 N   0  0  0  0  0  0
  -20.5161   18.6652  -17.0239 C   0  0  0  0  0  0
  -19.3930   19.2191  -16.3775 C   0  0  0  0  0  0
  -18.1844   19.2955  -17.2708 C   0  0  0  0  0  0
  -17.6342   20.4096  -17.2455 O   0  0  0  0  0  0
  -17.4753   18.2050  -17.9334 N   0  0  0  0  0  0
  -15.7873   18.7046  -17.7082 C   0  0  0  0  0  0
  -14.7329   17.8057  -16.4956 C   0  0  0  0  0  0
  -15.0109   16.2161  -16.0807 C   0  0  0  0  0  0
  -16.6152   15.3202  -16.3191 C   0  0  0  0  0  0
  -17.9374   16.3220  -17.8897 C   0  0  0  0  0  0
  1  2  1  0  0  0
  2  3  1  0  0  0
  3  4  1  0  0  0
  4  5  2  0  0  0
  4  9  1  0  0  0
  5  6  1  0  0  0
  6  7  2  0  0  0
  7  8  1  0  0  0
  7 10  1  0  0  0
  8  9  2  0  0  0
 10 11  2  0  0  0
 10 12  2  0  0  0
 10 13  1  0  0  0
 13 14  2  0  0  0
 13 23  1  0  0  0
 14 15  1  0  0  0
 14 20  1  0  0  0
 15 16  2  0  0  0
 16 17  1  0  0  0
 16 18  1  0  0  0
 18 19  2  0  0  0
 19 20  1  0  0  0
 20 21  2  0  0  0
 21 22  1  0  0  0
 22 23  2  0  0  0
 23 24  1  0  0  0
 24 25  2  0  0  0
 24 26  1  0  0  0
 26 27  1  0  0  0
 26 31  1  0  0  0
 27 28  1  0  0  0
 28 29  1  0  0  0
 29 30  1  0  0  0
 30 31  1  0  0  0
M  END
>  <CHROM.0>
-177.78202677,65.45338396,-10.22993238,67.03803705,32.05462043,-57.42671102
84.80526523,-161.67942498

>  <CHROM.1>
65.72182063,72.52284070,78.40300784,-15.46528275,-59.83444529,-139.26448157
-20.13267626,19.80063349,-14.20216385,2.49496920,0.67120925,0.20568708

>  <Name>
F3411-7832

>  <RI>
3.49863e+07

>  <Rbt.Current_Directory>
/home/adria/Escritorio/rDock_CMTR_LC/2pxcA_model/inputs_sah

>  <Rbt.Executable>
rbdock ($Id: //depot/dev/client3/rdock/2013.1/src/exe/rbdock.cxx#4 $)

>  <Rbt.Library>
libRbt.so (2013.1, Build901 2013/11/27)

>  <Rbt.Parameter_File>
/home/adria/Escritorio/rDock_2013.1_src/data/scripts/dock.prm

>  <Rbt.Receptor>
sah_rdock.prm

>  <SCORE>
-265.26

>  <SCORE.INTER>
-10.9179

>  <SCORE.INTER.CONST>
1

>  <SCORE.INTER.POLAR>
-0.836808

>  <SCORE.INTER.REPUL>
0

>  <SCORE.INTER.ROT>
6

>  <SCORE.INTER.VDW>
-19.4727

>  <SCORE.INTER.norm>
-0.352189

>  <SCORE.INTRA>
-259.872

>  <SCORE.INTRA.DIHEDRAL>
7.82671

>  <SCORE.INTRA.DIHEDRAL.0>
5.956

>  <SCORE.INTRA.POLAR>
0

>  <SCORE.INTRA.POLAR.0>
0

>  <SCORE.INTRA.REPUL>
0

>  <SCORE.INTRA.REPUL.0>
0

>  <SCORE.INTRA.VDW>
-263.785

>  <SCORE.INTRA.VDW.0>
262.356

>  <SCORE.INTRA.norm>
-8.38295

>  <SCORE.RESTR>
0

>  <SCORE.RESTR.CAVITY>
0

>  <SCORE.RESTR.norm>
0

>  <SCORE.SYSTEM>
5.52946

>  <SCORE.SYSTEM.CONST>
0

>  <SCORE.SYSTEM.DIHEDRAL>
8.78027

>  <SCORE.SYSTEM.POLAR>
-3.95725

>  <SCORE.SYSTEM.VDW>
14.594

>  <SCORE.SYSTEM.norm>
0.17837

>  <SCORE.heavy>
31

>  <SCORE.norm>
-8.55677

$$$$
F3411-7832
  rDOCK(R)          3D
libRbt.so/2013.1/901 2013/11/27
 31 34  0  0  0  0  0  0  0  0999 V2000
  -26.0641   23.2084   -8.0664 C   0  0  0  0  0  0
  -25.3895   23.9038   -9.3677 C   0  0  0  0  0  0
  -25.2919   23.4290  -11.0280 C   0  0  0  0  0  0
  -24.6140   22.0138  -11.7072 C   0  0  0  0  0  0
  -24.4623   20.8531  -10.4627 C   0  0  0  0  0  0
  -22.7702   19.9436   -9.9290 C   0  0  0  0  0  0
  -21.5461   20.0205  -11.2639 C   0  0  0  0  0  0
  -21.9348   21.0499  -12.6609 C   0  0  0  0  0  0
  -23.3795   22.0253  -12.8203 C   0  0  0  0  0  0
  -20.7144   18.5356  -11.7880 S   0  0  0  0  0  0
  -19.4566   19.0294  -12.3337 O   0  0  0  0  0  0
  -20.7025   17.6369  -10.6525 O   0  0  0  0  0  0
  -21.5053   17.7020  -13.1831 C   0  0  0  0  0  0
  -22.9061   17.8154  -13.0422 C   0  0  0  0  0  0
  -23.5717   17.5337  -11.8326 C   0  0  0  0  0  0
  -24.9142   17.8038  -11.6925 C   0  0  0  0  0  0
  -25.5142   17.5406  -10.5270 F   0  0  0  0  0  0
  -25.6229   18.3506  -12.7432 C   0  0  0  0  0  0
  -24.9848   18.5646  -13.9678 C   0  0  0  0  0  0
  -23.6437   18.2659  -14.1461 C   0  0  0  0  0  0
  -23.0859   18.4354  -15.3436 N   0  0  0  0  0  0
  -21.8042   18.0246  -15.4902 C   0  0  0  0  0  0
  -20.9611   17.5742  -14.4547 C   0  0  0  0  0  0
  -19.7453   16.8495  -14.9657 C   0  0  0  0  0  0
  -19.1364   16.2370  -14.0720 O   0  0  0  0  0  0
  -19.3586   16.5893  -16.3491 N   0  0  0  0  0  0
  -18.7604   18.1847  -16.8455 C   0  0  0  0  0  0
  -16.9500   18.4455  -17.0566 C   0  0  0  0  0  0
  -15.9109   17.2020  -17.4440 C   0  0  0  0  0  0
  -16.2727   15.4007  -17.2046 C   0  0  0  0  0  0
  -18.5129   14.9857  -17.0377 C   0  0  0  0  0  0
  1  2  1  0  0  0
  2  3  1  0  0  0
  3  4  1  0  0  0
  4  5  2  0  0  0
  4  9  1  0  0  0
  5  6  1  0  0  0
  6  7  2  0  0  0
  7  8  1  0  0  0
  7 10  1  0  0  0
  8  9  2  0  0  0
 10 11  2  0  0  0
 10 12  2  0  0  0
 10 13  1  0  0  0
 13 14  2  0  0  0
 13 23  1  0  0  0
 14 15  1  0  0  0
 14 20  1  0  0  0
 15 16  2  0  0  0
 16 17  1  0  0  0
 16 18  1  0  0  0
 18 19  2  0  0  0
 19 20  1  0  0  0
 20 21  2  0  0  0
 21 22  1  0  0  0
 22 23  2  0  0  0
 23 24  1  0  0  0
 24 25  2  0  0  0
 24 26  1  0  0  0
 26 27  1  0  0  0
 26 31  1  0  0  0
 27 28  1  0  0  0
 28 29  1  0  0  0
 29 30  1  0  0  0
 30 31  1  0  0  0
M  END
>  <CHROM.0>
178.60217567,-74.02166979,74.89986675,-61.67282010,32.61559408,-65.99683852
-54.82586079,-160.44978555

>  <CHROM.1>
-58.64452951,17.97069255,-153.88934183,-37.13581017,1.34410636,75.96595900
-21.84013616,18.77796958,-13.11581199,-2.40733561,-0.42545207,-2.65917226

>  <Name>
F3411-7832

>  <RI>
3.49863e+07

>  <Rbt.Current_Directory>
/home/adria/Escritorio/rDock_CMTR_LC/2pxcA_model/inputs_sah

>  <Rbt.Executable>
rbdock ($Id: //depot/dev/client3/rdock/2013.1/src/exe/rbdock.cxx#4 $)

>  <Rbt.Library>
libRbt.so (2013.1, Build901 2013/11/27)

>  <Rbt.Parameter_File>
/home/adria/Escritorio/rDock_2013.1_src/data/scripts/dock.prm

>  <Rbt.Receptor>
sah_rdock.prm

>  <SCORE>
-278.372

>  <SCORE.INTER>
-14.4871

>  <SCORE.INTER.CONST>
1

>  <SCORE.INTER.POLAR>
-1.53104

>  <SCORE.INTER.REPUL>
0

>  <SCORE.INTER.ROT>
6

>  <SCORE.INTER.VDW>
-20.6816

>  <SCORE.INTER.norm>
-0.467327

>  <SCORE.INTRA>
-269.509

>  <SCORE.INTRA.DIHEDRAL>
-2.81514

>  <SCORE.INTRA.DIHEDRAL.0>
5.956

>  <SCORE.INTRA.POLAR>
0

>  <SCORE.INTRA.POLAR.0>
0

>  <SCORE.INTRA.REPUL>
0

>  <SCORE.INTRA.REPUL.0>
0

>  <SCORE.INTRA.VDW>
-268.102

>  <SCORE.INTRA.VDW.0>
262.356

>  <SCORE.INTRA.norm>
-8.69384

>  <SCORE.RESTR>
0

>  <SCORE.RESTR.CAVITY>
0

>  <SCORE.RESTR.norm>
0

>  <SCORE.SYSTEM>
5.62382

>  <SCORE.SYSTEM.CONST>
0

>  <SCORE.SYSTEM.DIHEDRAL>
5.27153

>  <SCORE.SYSTEM.POLAR>
-3.28075

>  <SCORE.SYSTEM.REPUL>
0.0403088

>  <SCORE.SYSTEM.VDW>
13.941

>  <SCORE.SYSTEM.norm>
0.181414

>  <SCORE.heavy>
31

>  <SCORE.norm>
-8.97976

$$$$
F3411-7832
  rDOCK(R)          3D
libRbt.so/2013.1/901 2013/11/27
 31 34  0  0  0  0  0  0  0  0999 V2000
  -15.7661   13.1690  -17.7128 C   0  0  0  0  0  0
  -16.0798   14.4363  -18.6759 C   0  0  0  0  0  0
  -15.7455   16.1269  -18.5291 C   0  0  0  0  0  0
  -16.2220   17.2182  -17.3019 C   0  0  0  0  0  0
  -17.1050   16.3412  -16.1313 C   0  0  0  0  0  0
  -18.9610   16.7557  -15.5324 C   0  0  0  0  0  0
  -19.3909   18.4772  -15.9038 C   0  0  0  0  0  0
  -18.2488   19.3985  -16.9083 C   0  0  0  0  0  0
  -16.7744   18.7573  -17.6004 C   0  0  0  0  0  0
  -20.0842   19.5104  -14.6297 S   0  0  0  0  0  0
  -19.1610   19.3358  -13.5158 O   0  0  0  0  0  0
  -20.2721   20.8241  -15.2093 O   0  0  0  0  0  0
  -21.6687   18.9243  -13.9875 C   0  0  0  0  0  0
  -22.4875   18.5515  -15.0763 C   0  0  0  0  0  0
  -22.6652   19.3727  -16.2074 C   0  0  0  0  0  0
  -23.3450   18.9081  -17.3105 C   0  0  0  0  0  0
  -23.4831   19.7052  -18.3750 F   0  0  0  0  0  0
  -23.8649   17.6294  -17.3145 C   0  0  0  0  0  0
  -23.7545   16.8369  -16.1689 C   0  0  0  0  0  0
  -23.1081   17.2951  -15.0324 C   0  0  0  0  0  0
  -23.0702   16.5289  -13.9436 N   0  0  0  0  0  0
  -22.5236   17.0689  -12.8289 C   0  0  0  0  0  0
  -21.8573   18.3085  -12.7568 C   0  0  0  0  0  0
  -21.6912   18.8005  -11.3444 C   0  0  0  0  0  0
  -21.0584   18.0068  -10.6273 O   0  0  0  0  0  0
  -21.9524   20.1342  -10.8113 N   0  0  0  0  0  0
  -20.5703   21.0404  -11.4578 C   0  0  0  0  0  0
  -20.8360   22.2323  -12.8358 C   0  0  0  0  0  0
  -22.2976   22.9919  -13.0863 C   0  0  0  0  0  0
  -23.9267   22.4067  -12.4254 C   0  0  0  0  0  0
  -23.6792   21.0006  -10.6421 C   0  0  0  0  0  0
  1  2  1  0  0  0
  2  3  1  0  0  0
  3  4  1  0  0  0
  4  5  2  0  0  0
  4  9  1  0  0  0
  5  6  1  0  0  0
  6  7  2  0  0  0
  7  8  1  0  0  0
  7 10  1  0  0  0
  8  9  2  0  0  0
 10 11  2  0  0  0
 10 12  2  0  0  0
 10 13  1  0  0  0
 13 14  2  0  0  0
 13 23  1  0  0  0
 14 15  1  0  0  0
 14 20  1  0  0  0
 15 16  2  0  0  0
 16 17  1  0  0  0
 16 18  1  0  0  0
 18 19  2  0  0  0
 19 20  1  0  0  0
 20 21  2  0  0  0
 21 22  1  0  0  0
 22 23  2  0  0  0
 23 24  1  0  0  0
 24 25  2  0  0  0
 24 26  1  0  0  0
 26 27  1  0  0  0
 26 31  1  0  0  0
 27 28  1  0  0  0
 28 29  1  0  0  0
 29 30  1  0  0  0
 30 31  1  0  0  0
M  END
>  <CHROM.0>
-176.89049845,-166.60002721,72.53060285,64.73758222,168.26849542,177.84847309
81.72020034,-160.78661501

>  <CHROM.1>
-58.36820398,1.54840892,50.67093094,-45.23978122,-132.82174177,-74.16683898
-20.67076910,18.65761053,-14.82714461,-0.85269640,-0.25020246,1.06966015

>  <Name>
F3411-7832

>  <RI>
3.49863e+07

>  <Rbt.Current_Directory>
/home/adria/Escritorio/rDock_CMTR_LC/2pxcA_model/inputs_sah

>  <Rbt.Executable>
rbdock ($Id: //depot/dev/client3/rdock/2013.1/src/exe/rbdock.cxx#4 $)

>  <Rbt.Library>
libRbt.so (2013.1, Build901 2013/11/27)

>  <Rbt.Parameter_File>
/home/adria/Escritorio/rDock_2013.1_src/data/scripts/dock.prm

>  <Rbt.Receptor>
sah_rdock.prm

>  <SCORE>
-275.205

>  <SCORE.INTER>
-8.8388

>  <SCORE.INTER.CONST>
1

>  <SCORE.INTER.POLAR>
-0.0987154

>  <SCORE.INTER.REPUL>
0

>  <SCORE.INTER.ROT>
6

>  <SCORE.INTER.VDW>
-19.9032

>  <SCORE.INTER.norm>
-0.285122

>  <SCORE.INTRA>
-265.201

>  <SCORE.INTRA.DIHEDRAL>
3.32189

>  <SCORE.INTRA.DIHEDRAL.0>
5.956

>  <SCORE.INTRA.POLAR>
0

>  <SCORE.INTRA.POLAR.0>
0

>  <SCORE.INTRA.REPUL>
0

>  <SCORE.INTRA.REPUL.0>
0

>  <SCORE.INTRA.VDW>
-266.862

>  <SCORE.INTRA.VDW.0>
262.356

>  <SCORE.INTRA.norm>
-8.55487

>  <SCORE.RESTR>
0

>  <SCORE.RESTR.CAVITY>
0

>  <SCORE.RESTR.norm>
0

>  <SCORE.SYSTEM>
-1.1657

>  <SCORE.SYSTEM.CONST>
0

>  <SCORE.SYSTEM.DIHEDRAL>
3.61521

>  <SCORE.SYSTEM.POLAR>
-3.58035

>  <SCORE.SYSTEM.VDW>
9.19988

>  <SCORE.SYSTEM.norm>
-0.0376031

>  <SCORE.heavy>
31

>  <SCORE.norm>
-8.8776

$$$$
F3411-7832
  rDOCK(R)          3D
libRbt.so/2013.1/901 2013/11/27
 31 34  0  0  0  0  0  0  0  0999 V2000
  -20.9344   25.7204  -10.4158 C   0  0  0  0  0  0
  -21.9368   25.7642  -11.6908 C   0  0  0  0  0  0
  -22.9087   24.5549  -12.4554 C   0  0  0  0  0  0
  -22.4234   23.1004  -13.2122 C   0  0  0  0  0  0
  -23.1180   21.8002  -12.3484 C   0  0  0  0  0  0
  -22.1116   20.2860  -11.5303 C   0  0  0  0  0  0
  -20.4765   20.1094  -12.2930 C   0  0  0  0  0  0
  -19.9612   21.3931  -13.4104 C   0  0  0  0  0  0
  -20.8883   22.8289  -13.7890 C   0  0  0  0  0  0
  -19.9401   18.5144  -12.8760 S   0  0  0  0  0  0
  -18.5210   18.7131  -13.1407 O   0  0  0  0  0  0
  -20.3584   17.5426  -11.8873 O   0  0  0  0  0  0
  -20.6286   18.0473  -14.4805 C   0  0  0  0  0  0
  -22.0281   18.2338  -14.4434 C   0  0  0  0  0  0
  -22.8283   17.7600  -13.3848 C   0  0  0  0  0  0
  -24.1613   18.0952  -13.3100 C   0  0  0  0  0  0
  -24.8909   17.6436  -12.2847 F   0  0  0  0  0  0
  -24.7280   18.8979  -14.2795 C   0  0  0  0  0  0
  -23.9572   19.3109  -15.3695 C   0  0  0  0  0  0
  -22.6233   18.9557  -15.4876 C   0  0  0  0  0  0
  -21.9375   19.3256  -16.5678 N   0  0  0  0  0  0
  -20.6719   18.8589  -16.6840 C   0  0  0  0  0  0
  -19.9650   18.1434  -15.6970 C   0  0  0  0  0  0
  -18.7448   17.4503  -16.2403 C   0  0  0  0  0  0
  -18.3836   16.4884  -15.5412 O   0  0  0  0  0  0
  -18.1185   17.6088  -17.5494 N   0  0  0  0  0  0
  -17.3278   19.1868  -17.3643 C   0  0  0  0  0  0
  -15.4969   19.2647  -17.1850 C   0  0  0  0  0  0
  -14.4908   18.0924  -17.8090 C   0  0  0  0  0  0
  -15.0149   16.3749  -18.2658 C   0  0  0  0  0  0
  -17.2686   16.2228  -18.6068 C   0  0  0  0  0  0
  1  2  1  0  0  0
  2  3  1  0  0  0
  3  4  1  0  0  0
  4  5  2  0  0  0
  4  9  1  0  0  0
  5  6  1  0  0  0
  6  7  2  0  0  0
  7  8  1  0  0  0
  7 10  1  0  0  0
  8  9  2  0  0  0
 10 11  2  0  0  0
 10 12  2  0  0  0
 10 13  1  0  0  0
 13 14  2  0  0  0
 13 23  1  0  0  0
 14 15  1  0  0  0
 14 20  1  0  0  0
 15 16  2  0  0  0
 16 17  1  0  0  0
 16 18  1  0  0  0
 18 19  2  0  0  0
 19 20  1  0  0  0
 20 21  2  0  0  0
 21 22  1  0  0  0
 22 23  2  0  0  0
 23 24  1  0  0  0
 24 25  2  0  0  0
 24 26  1  0  0  0
 26 27  1  0  0  0
 26 31  1  0  0  0
 27 28  1  0  0  0
 28 29  1  0  0  0
 29 30  1  0  0  0
 30 31  1  0  0  0
M  END
>  <CHROM.0>
-178.24386603,-73.01838686,-46.01083887,64.41499650,-28.97581939,-178.86562302
83.07166425,-157.58147659

>  <CHROM.1>
-61.05855091,117.65363005,-168.27932854,-50.04226342,11.52482020,74.40260061
-20.48659499,19.42647024,-14.40473377,-2.35687265,-0.42766250,-2.72350401

>  <Name>
F3411-7832

>  <RI>
3.49863e+07

>  <Rbt.Current_Directory>
/home/adria/Escritorio/rDock_CMTR_LC/2pxcA_model/inputs_sah

>  <Rbt.Executable>
rbdock ($Id: //depot/dev/client3/rdock/2013.1/src/exe/rbdock.cxx#4 $)

>  <Rbt.Library>
libRbt.so (2013.1, Build901 2013/11/27)

>  <Rbt.Parameter_File>
/home/adria/Escritorio/rDock_2013.1_src/data/scripts/dock.prm

>  <Rbt.Receptor>
sah_rdock.prm

>  <SCORE>
-291.492

>  <SCORE.INTER>
-15.3695

>  <SCORE.INTER.CONST>
1

>  <SCORE.INTER.POLAR>
-0.274656

>  <SCORE.INTER.REPUL>
0

>  <SCORE.INTER.ROT>
6

>  <SCORE.INTER.VDW>
-25.8357

>  <SCORE.INTER.norm>
-0.49579

>  <SCORE.INTRA>
-269.116

>  <SCORE.INTRA.DIHEDRAL>
-3.30652

>  <SCORE.INTRA.DIHEDRAL.0>
5.956

>  <SCORE.INTRA.POLAR>
0

>  <SCORE.INTRA.POLAR.0>
0

>  <SCORE.INTRA.REPUL>
0

>  <SCORE.INTRA.REPUL.0>
0

>  <SCORE.INTRA.VDW>
-267.463

>  <SCORE.INTRA.VDW.0>
262.356

>  <SCORE.INTRA.norm>
-8.68116

>  <SCORE.RESTR>
0

>  <SCORE.RESTR.CAVITY>
0

>  <SCORE.RESTR.norm>
0

>  <SCORE.SYSTEM>
-7.00701

>  <SCORE.SYSTEM.CONST>
0

>  <SCORE.SYSTEM.DIHEDRAL>
7.03289

>  <SCORE.SYSTEM.POLAR>
-3.98882

>  <SCORE.SYSTEM.REPUL>
0.0385683

>  <SCORE.SYSTEM.VDW>
2.84568

>  <SCORE.SYSTEM.norm>
-0.226033

>  <SCORE.heavy>
31

>  <SCORE.norm>
-9.40298

$$$$
F3411-7832
  rDOCK(R)          3D
libRbt.so/2013.1/901 2013/11/27
 31 34  0  0  0  0  0  0  0  0999 V2000
  -20.8960   25.7365  -10.4790 C   0  0  0  0  0  0
  -21.9419   25.7697  -11.7187 C   0  0  0  0  0  0
  -22.8932   24.5412  -12.4786 C   0  0  0  0  0  0
  -22.3823   23.0983  -13.2407 C   0  0  0  0  0  0
  -23.1111   21.7856  -12.4252 C   0  0  0  0  0  0
  -22.1387   20.2557  -11.5952 C   0  0  0  0  0  0
  -20.4765   20.0879  -12.2989 C   0  0  0  0  0  0
  -19.9174   21.3887  -13.3747 C   0  0  0  0  0  0
  -20.8271   22.8326  -13.7639 C   0  0  0  0  0  0
  -19.9214   18.5015  -12.8877 S   0  0  0  0  0  0
  -18.5045   18.7176  -13.1509 O   0  0  0  0  0  0
  -20.3289   17.5211  -11.9030 O   0  0  0  0  0  0
  -20.6035   18.0326  -14.4944 C   0  0  0  0  0  0
  -22.0050   18.2042  -14.4578 C   0  0  0  0  0  0
  -22.8010   17.7183  -13.4016 C   0  0  0  0  0  0
  -24.1375   18.0391  -13.3268 C   0  0  0  0  0  0
  -24.8631   17.5763  -12.3036 F   0  0  0  0  0  0
  -24.7119   18.8391  -14.2940 C   0  0  0  0  0  0
  -23.9446   19.2639  -15.3819 C   0  0  0  0  0  0
  -22.6069   18.9233  -15.5001 C   0  0  0  0  0  0
  -21.9242   19.3042  -16.5784 N   0  0  0  0  0  0
  -20.6537   18.8513  -16.6951 C   0  0  0  0  0  0
  -19.9400   18.1399  -15.7100 C   0  0  0  0  0  0
  -18.7121   17.4616  -16.2547 C   0  0  0  0  0  0
  -18.3555   16.4864  -15.5718 O   0  0  0  0  0  0
  -18.0725   17.6490  -17.5535 N   0  0  0  0  0  0
  -17.3076   19.2355  -17.3351 C   0  0  0  0  0  0
  -15.4803   19.3375  -17.1323 C   0  0  0  0  0  0
  -14.4495   18.1896  -17.7614 C   0  0  0  0  0  0
  -14.9426   16.4717  -18.2502 C   0  0  0  0  0  0
  -17.1896   16.2918  -18.6209 C   0  0  0  0  0  0
  1  2  1  0  0  0
  2  3  1  0  0  0
  3  4  1  0  0  0
  4  5  2  0  0  0
  4  9  1  0  0  0
  5  6  1  0  0  0
  6  7  2  0  0  0
  7  8  1  0  0  0
  7 10  1  0  0  0
  8  9  2  0  0  0
 10 11  2  0  0  0
 10 12  2  0  0  0
 10 13  1  0  0  0
 13 14  2  0  0  0
 13 23  1  0  0  0
 14 15  1  0  0  0
 14 20  1  0  0  0
 15 16  2  0  0  0
 16 17  1  0  0  0
 16 18  1  0  0  0
 18 19  2  0  0  0
 19 20  1  0  0  0
 20 21  2  0  0  0
 21 22  1  0  0  0
 22 23  2  0  0  0
 23 24  1  0  0  0
 24 25  2  0  0  0
 24 26  1  0  0  0
 26 27  1  0  0  0
 26 31  1  0  0  0
 27 28  1  0  0  0
 28 29  1  0  0  0
 29 30  1  0  0  0
 30 31  1  0  0  0
M  END
>  <CHROM.0>
-179.40862830,-166.73877679,-166.10176208,-56.63403169,169.15449129,179.88711371
-156.86212773,-164.69204267

>  <CHROM.1>
-58.87574892,120.63966310,-170.65165344,-49.97830692,12.74679732,73.64250653
-20.46070161,19.42509186,-14.41580242,-2.36806006,-0.42895083,-2.72887521

>  <Name>
F3411-7832

>  <RI>
3.49863e+07

>  <Rbt.Current_Directory>
/home/adria/Escritorio/rDock_CMTR_LC/2pxcA_model/inputs_sah

>  <Rbt.Executable>
rbdock ($Id: //depot/dev/client3/rdock/2013.1/src/exe/rbdock.cxx#4 $)

>  <Rbt.Library>
libRbt.so (2013.1, Build901 2013/11/27)

>  <Rbt.Parameter_File>
/home/adria/Escritorio/rDock_2013.1_src/data/scripts/dock.prm

>  <Rbt.Receptor>
sah_rdock.prm

>  <SCORE>
-285.343

>  <SCORE.INTER>
-15.5212

>  <SCORE.INTER.CONST>
1

>  <SCORE.INTER.POLAR>
-0.291438

>  <SCORE.INTER.REPUL>
0

>  <SCORE.INTER.ROT>
6

>  <SCORE.INTER.VDW>
-25.9303

>  <SCORE.INTER.norm>
-0.500683

>  <SCORE.INTRA>
-269.049

>  <SCORE.INTRA.DIHEDRAL>
-3.27866

>  <SCORE.INTRA.DIHEDRAL.0>
5.956

>  <SCORE.INTRA.POLAR>
0

>  <SCORE.INTRA.POLAR.0>
0

>  <SCORE.INTRA.REPUL>
0

>  <SCORE.INTRA.REPUL.0>
0

>  <SCORE.INTRA.VDW>
-267.41

>  <SCORE.INTRA.VDW.0>
262.356

>  <SCORE.INTRA.norm>
-8.679

>  <SCORE.RESTR>
0

>  <SCORE.RESTR.CAVITY>
0

>  <SCORE.RESTR.norm>
0

>  <SCORE.SYSTEM>
-0.772422

>  <SCORE.SYSTEM.CONST>
0

>  <SCORE.SYSTEM.DIHEDRAL>
3.41374

>  <SCORE.SYSTEM.POLAR>
-3.57746

>  <SCORE.SYSTEM.VDW>
9.68409

>  <SCORE.SYSTEM.norm>
-0.0249168

>  <SCORE.heavy>
31

>  <SCORE.norm>
-9.2046

$$$$
F3411-7832
  rDOCK(R)          3D
libRbt.so/2013.1/901 2013/11/27
 31 34  0  0  0  0  0  0  0  0999 V2000
  -19.7372   25.4841  -10.0040 C   0  0  0  0  0  0
  -19.8920   24.1950  -10.9768 C   0  0  0  0  0  0
  -20.8508   23.9028  -12.3863 C   0  0  0  0  0  0
  -20.9643   22.4878  -13.3395 C   0  0  0  0  0  0
  -22.3201   21.5980  -12.8017 C   0  0  0  0  0  0
  -22.2867   19.7067  -12.1715 C   0  0  0  0  0  0
  -20.8107   18.8483  -12.7804 C   0  0  0  0  0  0
  -19.5735   19.8381  -13.5877 C   0  0  0  0  0  0
  -19.6518   21.5746  -13.7941 C   0  0  0  0  0  0
  -20.9752   17.2675  -13.5837 S   0  0  0  0  0  0
  -19.6632   16.6598  -13.4020 O   0  0  0  0  0  0
  -22.1475   16.6298  -13.0215 O   0  0  0  0  0  0
  -21.1709   17.3700  -15.3776 C   0  0  0  0  0  0
  -22.4860   17.7976  -15.6650 C   0  0  0  0  0  0
  -23.6200   17.2225  -15.0577 C   0  0  0  0  0  0
  -24.8691   17.7689  -15.2477 C   0  0  0  0  0  0
  -25.9238   17.2103  -14.6449 F   0  0  0  0  0  0
  -25.0213   18.8869  -16.0427 C   0  0  0  0  0  0
  -23.9114   19.4179  -16.7051 C   0  0  0  0  0  0
  -22.6498   18.8638  -16.5606 C   0  0  0  0  0  0
  -21.6275   19.3673  -17.2500 N   0  0  0  0  0  0
  -20.4423   18.7197  -17.1561 C   0  0  0  0  0  0
  -20.1544   17.6536  -16.2807 C   0  0  0  0  0  0
  -18.9012   16.9109  -16.6580 C   0  0  0  0  0  0
  -18.7764   15.8336  -16.0511 O   0  0  0  0  0  0
  -17.9930   17.1701  -17.7711 N   0  0  0  0  0  0
  -17.3171   18.7436  -17.3051 C   0  0  0  0  0  0
  -15.5815   18.8374  -16.6975 C   0  0  0  0  0  0
  -14.4214   17.7274  -17.1427 C   0  0  0  0  0  0
  -14.7706   16.0380  -17.8187 C   0  0  0  0  0  0
  -16.8773   15.8749  -18.6869 C   0  0  0  0  0  0
  1  2  1  0  0  0
  2  3  1  0  0  0
  3  4  1  0  0  0
  4  5  2  0  0  0
  4  9  1  0  0  0
  5  6  1  0  0  0
  6  7  2  0  0  0
  7  8  1  0  0  0
  7 10  1  0  0  0
  8  9  2  0  0  0
 10 11  2  0  0  0
 10 12  2  0  0  0
 10 13  1  0  0  0
 13 14  2  0  0  0
 13 23  1  0  0  0
 14 15  1  0  0  0
 14 20  1  0  0  0
 15 16  2  0  0  0
 16 17  1  0  0  0
 16 18  1  0  0  0
 18 19  2  0  0  0
 19 20  1  0  0  0
 20 21  2  0  0  0
 21 22  1  0  0  0
 22 23  2  0  0  0
 23 24  1  0  0  0
 24 25  2  0  0  0
 24 26  1  0  0  0
 26 27  1  0  0  0
 26 31  1  0  0  0
 27 28  1  0  0  0
 28 29  1  0  0  0
 29 30  1  0  0  0
 30 31  1  0  0  0
M  END
>  <CHROM.0>
-60.24320493,-73.00957090,-42.64483553,60.88986856,168.07178490,-57.50888010
-156.11160504,-52.26108410

>  <CHROM.1>
-178.95513012,95.98228396,-156.41832962,-75.18069545,1.13537699,66.45527100
-20.50532955,18.78878353,-14.94328846,-2.24852649,-0.18812520,-2.50582777

>  <Name>
F3411-7832

>  <RI>
3.49863e+07

>  <Rbt.Current_Directory>
/home/adria/Escritorio/rDock_CMTR_LC/2pxcA_model/inputs_sah

>  <Rbt.Executable>
rbdock ($Id: //depot/dev/client3/rdock/2013.1/src/exe/rbdock.cxx#4 $)

>  <Rbt.Library>
libRbt.so (2013.1, Build901 2013/11/27)

>  <Rbt.Parameter_File>
/home/adria/Escritorio/rDock_2013.1_src/data/scripts/dock.prm

>  <Rbt.Receptor>
sah_rdock.prm

>  <SCORE>
-285.248

>  <SCORE.INTER>
-18.0207

>  <SCORE.INTER.CONST>
1

>  <SCORE.INTER.POLAR>
-0.822578

>  <SCORE.INTER.REPUL>
0.00615776

>  <SCORE.INTER.ROT>
6

>  <SCORE.INTER.VDW>
-26.6547

>  <SCORE.INTER.norm>
-0.581313

>  <SCORE.INTRA>
-267.014

>  <SCORE.INTRA.DIHEDRAL>
-3.44416

>  <SCORE.INTRA.DIHEDRAL.0>
5.956

>  <SCORE.INTRA.POLAR>
0

>  <SCORE.INTRA.POLAR.0>
0

>  <SCORE.INTRA.REPUL>
0

>  <SCORE.INTRA.REPUL.0>
0

>  <SCORE.INTRA.VDW>
-265.292

>  <SCORE.INTRA.VDW.0>
262.356

>  <SCORE.INTRA.norm>
-8.61335

>  <SCORE.RESTR>
0.469633

>  <SCORE.RESTR.CAVITY>
0.469633

>  <SCORE.RESTR.norm>
0.0151494

>  <SCORE.SYSTEM>
-0.682654

>  <SCORE.SYSTEM.CONST>
0

>  <SCORE.SYSTEM.DIHEDRAL>
6.42961

>  <SCORE.SYSTEM.POLAR>
-3.65095

>  <SCORE.SYSTEM.REPUL>
0.0445299

>  <SCORE.SYSTEM.VDW>
8.29312

>  <SCORE.SYSTEM.norm>
-0.0220211

>  <SCORE.heavy>
31

>  <SCORE.norm>
-9.20154

$$$$
