F6368-0502
  rDOCK(R)          3D
libRbt.so/2013.1/901 2013/11/27
 30 33  0  0  0  0  0  0  0  0999 V2000
  -24.4688   19.4877   -8.2269 C   0  0  0  0  0  0
  -24.4902   20.8760   -8.7483 C   0  0  0  0  0  0
  -23.8047   21.1806   -9.9351 C   0  0  0  0  0  0
  -23.9029   22.4826  -10.3789 C   0  0  0  0  0  0
  -22.8558   23.0115  -11.7239 C   0  0  0  0  0  0
  -20.9418   21.8646  -12.6754 S   0  0  0  0  0  0
  -20.4226   22.2849  -14.0270 O   0  0  0  0  0  0
  -19.6545   21.6849  -11.9023 O   0  0  0  0  0  0
  -21.3744   20.1272  -13.1408 N   0  0  0  0  0  0
  -20.8558   19.3099  -12.0586 C   0  0  0  0  0  0
  -21.2165   17.8998  -12.2974 C   0  0  0  0  0  0
  -21.5877   17.5289  -13.6799 N   0  0  0  0  0  0
  -20.6177   17.9963  -14.7428 C   0  0  0  0  0  0
  -18.9829   17.9059  -14.8164 C   0  0  0  0  0  0
  -18.1106   18.7525  -15.7068 N   0  0  0  0  0  0
  -17.9521   20.0812  -15.3553 C   0  0  0  0  0  0
  -17.2780   20.6753  -16.3840 C   0  0  0  0  0  0
  -16.8212   19.7639  -17.2977 N   0  0  0  0  0  0
  -17.2240   18.5636  -16.9046 C   0  0  0  0  0  0
  -16.8505   17.2495  -17.8663 C   0  0  0  0  0  0
  -15.2245   16.6825  -18.6780 C   0  0  0  0  0  0
  -14.4654   15.1232  -18.6752 C   0  0  0  0  0  0
  -15.3033   13.8197  -17.8692 C   0  0  0  0  0  0
  -16.8899   14.1722  -17.0480 C   0  0  0  0  0  0
  -17.7398   15.8612  -17.0538 C   0  0  0  0  0  0
  -22.9072   18.0472  -13.9684 C   0  0  0  0  0  0
  -22.7628   19.5099  -14.1212 C   0  0  0  0  0  0
  -24.6647   23.4061   -9.5385 C   0  0  0  0  0  0
  -25.3230   23.1137   -8.3846 C   0  0  0  0  0  0
  -25.2602   21.8152   -8.0086 C   0  0  0  0  0  0
  1  2  1  0  0  0
  2  3  2  0  0  0
  2 30  1  0  0  0
  3  4  1  0  0  0
  4  5  1  0  0  0
  4 28  2  0  0  0
  5  6  1  0  0  0
  6  7  2  0  0  0
  6  8  2  0  0  0
  6  9  1  0  0  0
  9 10  1  0  0  0
  9 27  1  0  0  0
 10 11  1  0  0  0
 11 12  1  0  0  0
 12 13  1  0  0  0
 12 26  1  0  0  0
 13 14  1  0  0  0
 14 15  1  0  0  0
 15 16  1  0  0  0
 15 19  1  0  0  0
 16 17  2  0  0  0
 17 18  1  0  0  0
 18 19  2  0  0  0
 19 20  1  0  0  0
 20 21  2  0  0  0
 20 25  1  0  0  0
 21 22  1  0  0  0
 22 23  2  0  0  0
 23 24  1  0  0  0
 24 25  2  0  0  0
 26 27  1  0  0  0
 28 29  1  0  0  0
 29 30  2  0  0  0
M  END
>  <CHROM.0>
-63.90907712,63.85419886,72.30232307,-61.62098729,-29.53980877,-61.76459184
80.84255300,-163.35564465

>  <CHROM.1>
-12.22756701,163.53451354,-100.43186743,47.05329085,-160.69349712,73.17168348
-141.26941849,-20.38266339,19.48235609,-13.63297501,2.61859543,0.75803107
0.10144619

>  <Name>
F6368-0502

>  <RI>
1.15531e+07

>  <Rbt.Current_Directory>
/home/adria/Escritorio/rDock_CMTR_LC/2pxcA_model/inputs_sah

>  <Rbt.Executable>
rbdock ($Id: //depot/dev/client3/rdock/2013.1/src/exe/rbdock.cxx#4 $)

>  <Rbt.Library>
libRbt.so (2013.1, Build901 2013/11/27)

>  <Rbt.Parameter_File>
/home/adria/Escritorio/rDock_2013.1_src/data/scripts/dock.prm

>  <Rbt.Receptor>
sah_rdock.prm

>  <SCORE>
-303.587

>  <SCORE.INTER>
-14.0181

>  <SCORE.INTER.CONST>
1

>  <SCORE.INTER.POLAR>
-0.848528

>  <SCORE.INTER.REPUL>
0

>  <SCORE.INTER.ROT>
7

>  <SCORE.INTER.VDW>
-23.5331

>  <SCORE.INTER.norm>
-0.467268

>  <SCORE.INTRA>
-282.454

>  <SCORE.INTRA.DIHEDRAL>
-5.4025

>  <SCORE.INTRA.DIHEDRAL.0>
13.9833

>  <SCORE.INTRA.POLAR>
0

>  <SCORE.INTRA.POLAR.0>
0

>  <SCORE.INTRA.REPUL>
0

>  <SCORE.INTRA.REPUL.0>
0

>  <SCORE.INTRA.VDW>
-279.753

>  <SCORE.INTRA.VDW.0>
277.803

>  <SCORE.INTRA.norm>
-9.41514

>  <SCORE.RESTR>
0

>  <SCORE.RESTR.CAVITY>
0

>  <SCORE.RESTR.norm>
0

>  <SCORE.SYSTEM>
-7.11468

>  <SCORE.SYSTEM.CONST>
0

>  <SCORE.SYSTEM.DIHEDRAL>
5.57969

>  <SCORE.SYSTEM.POLAR>
-3.67589

>  <SCORE.SYSTEM.VDW>
2.5935

>  <SCORE.SYSTEM.norm>
-0.237156

>  <SCORE.heavy>
30

>  <SCORE.norm>
-10.1196

$$$$
F6368-0502
  rDOCK(R)          3D
libRbt.so/2013.1/901 2013/11/27
 30 33  0  0  0  0  0  0  0  0999 V2000
  -20.0619   25.5219  -10.1728 C   0  0  0  0  0  0
  -20.7927   24.4704  -10.9211 C   0  0  0  0  0  0
  -22.0200   23.9973  -10.4301 C   0  0  0  0  0  0
  -22.6598   23.0488  -11.2001 C   0  0  0  0  0  0
  -24.0824   22.2110  -10.5221 C   0  0  0  0  0  0
  -24.2950   19.8742   -9.9071 S   0  0  0  0  0  0
  -23.2443   19.2398   -9.0314 O   0  0  0  0  0  0
  -25.5650   19.3218   -9.2996 O   0  0  0  0  0  0
  -24.0440   18.7770  -11.3752 N   0  0  0  0  0  0
  -24.1900   17.4266  -10.8623 C   0  0  0  0  0  0
  -24.0806   16.4677  -11.9777 C   0  0  0  0  0  0
  -23.4364   16.9532  -13.2170 N   0  0  0  0  0  0
  -22.1099   17.6508  -13.0095 C   0  0  0  0  0  0
  -20.9726   18.1331  -14.0866 C   0  0  0  0  0  0
  -19.7771   18.9882  -13.7550 N   0  0  0  0  0  0
  -19.7669   19.6048  -12.5165 C   0  0  0  0  0  0
  -18.6913   20.4468  -12.5129 C   0  0  0  0  0  0
  -17.8913   20.2685  -13.6095 N   0  0  0  0  0  0
  -18.4513   19.3373  -14.3689 C   0  0  0  0  0  0
  -17.7121   18.9461  -15.8153 C   0  0  0  0  0  0
  -15.9514   19.2499  -16.4723 C   0  0  0  0  0  0
  -14.8370   18.1485  -17.2159 C   0  0  0  0  0  0
  -15.3790   16.5095  -17.4816 C   0  0  0  0  0  0
  -17.0500   16.0383  -16.9321 C   0  0  0  0  0  0
  -18.2837   17.2285  -16.1343 C   0  0  0  0  0  0
  -24.3476   17.8425  -13.9041 C   0  0  0  0  0  0
  -24.3855   19.0958  -13.1221 C   0  0  0  0  0  0
  -21.9649   22.6084  -12.4095 C   0  0  0  0  0  0
  -20.7723   23.0607  -12.8820 C   0  0  0  0  0  0
  -20.1996   24.0353  -12.1380 C   0  0  0  0  0  0
  1  2  1  0  0  0
  2  3  2  0  0  0
  2 30  1  0  0  0
  3  4  1  0  0  0
  4  5  1  0  0  0
  4 28  2  0  0  0
  5  6  1  0  0  0
  6  7  2  0  0  0
  6  8  2  0  0  0
  6  9  1  0  0  0
  9 10  1  0  0  0
  9 27  1  0  0  0
 10 11  1  0  0  0
 11 12  1  0  0  0
 12 13  1  0  0  0
 12 26  1  0  0  0
 13 14  1  0  0  0
 14 15  1  0  0  0
 15 16  1  0  0  0
 15 19  1  0  0  0
 16 17  2  0  0  0
 17 18  1  0  0  0
 18 19  2  0  0  0
 19 20  1  0  0  0
 20 21  2  0  0  0
 20 25  1  0  0  0
 21 22  1  0  0  0
 22 23  2  0  0  0
 23 24  1  0  0  0
 24 25  2  0  0  0
 26 27  1  0  0  0
 28 29  1  0  0  0
 29 30  2  0  0  0
M  END
>  <CHROM.0>
-179.86319660,-71.63249679,-45.37180375,62.54149933,167.80329253,-174.96863326
-156.84460960,-167.82986301

>  <CHROM.1>
-112.56515976,49.84930842,179.66828881,169.70718905,171.19733494,-12.16184604
-172.00341577,-21.15346192,19.78994046,-12.70151674,-2.59489545,-0.53505485
-2.71615929

>  <Name>
F6368-0502

>  <RI>
1.15531e+07

>  <Rbt.Current_Directory>
/home/adria/Escritorio/rDock_CMTR_LC/2pxcA_model/inputs_sah

>  <Rbt.Executable>
rbdock ($Id: //depot/dev/client3/rdock/2013.1/src/exe/rbdock.cxx#4 $)

>  <Rbt.Library>
libRbt.so (2013.1, Build901 2013/11/27)

>  <Rbt.Parameter_File>
/home/adria/Escritorio/rDock_2013.1_src/data/scripts/dock.prm

>  <Rbt.Receptor>
sah_rdock.prm

>  <SCORE>
-299.133

>  <SCORE.INTER>
-13.2611

>  <SCORE.INTER.CONST>
1

>  <SCORE.INTER.POLAR>
-0.816148

>  <SCORE.INTER.REPUL>
0.0394288

>  <SCORE.INTER.ROT>
7

>  <SCORE.INTER.VDW>
-23.0833

>  <SCORE.INTER.norm>
-0.442036

>  <SCORE.INTRA>
-283.514

>  <SCORE.INTRA.DIHEDRAL>
-7.91158

>  <SCORE.INTRA.DIHEDRAL.0>
13.9833

>  <SCORE.INTRA.POLAR>
0

>  <SCORE.INTRA.POLAR.0>
0

>  <SCORE.INTRA.REPUL>
0

>  <SCORE.INTRA.REPUL.0>
0

>  <SCORE.INTRA.VDW>
-279.558

>  <SCORE.INTRA.VDW.0>
277.803

>  <SCORE.INTRA.norm>
-9.45046

>  <SCORE.RESTR>
0.00637506

>  <SCORE.RESTR.CAVITY>
0.00637506

>  <SCORE.RESTR.norm>
0.000212502

>  <SCORE.SYSTEM>
-2.36491

>  <SCORE.SYSTEM.CONST>
0

>  <SCORE.SYSTEM.DIHEDRAL>
3.33568

>  <SCORE.SYSTEM.POLAR>
-3.91042

>  <SCORE.SYSTEM.REPUL>
0.0360026

>  <SCORE.SYSTEM.VDW>
9.08265

>  <SCORE.SYSTEM.norm>
-0.0788305

>  <SCORE.heavy>
30

>  <SCORE.norm>
-9.97111

$$$$
F6368-0502
  rDOCK(R)          3D
libRbt.so/2013.1/901 2013/11/27
 30 33  0  0  0  0  0  0  0  0999 V2000
  -21.0463   25.3164  -10.9577 C   0  0  0  0  0  0
  -22.1510   24.7072  -11.7375 C   0  0  0  0  0  0
  -22.3882   23.3269  -11.6399 C   0  0  0  0  0  0
  -23.4566   22.8393  -12.3628 C   0  0  0  0  0  0
  -23.6639   21.0720  -12.5007 C   0  0  0  0  0  0
  -22.4767   19.5310  -13.9499 S   0  0  0  0  0  0
  -22.3134   18.0929  -13.5274 O   0  0  0  0  0  0
  -22.8331   19.3755  -15.4114 O   0  0  0  0  0  0
  -20.6744   19.9418  -14.0195 N   0  0  0  0  0  0
  -20.6223   21.3220  -14.4670 C   0  0  0  0  0  0
  -19.2188   21.7753  -14.4851 C   0  0  0  0  0  0
  -18.1768   20.7263  -14.5038 N   0  0  0  0  0  0
  -18.3808   19.6499  -15.5473 C   0  0  0  0  0  0
  -17.4024   18.4273  -16.0313 C   0  0  0  0  0  0
  -16.1041   18.6035  -16.7754 N   0  0  0  0  0  0
  -15.3036   19.6690  -16.4033 C   0  0  0  0  0  0
  -14.2880   19.7260  -17.3148 C   0  0  0  0  0  0
  -14.2778   18.6387  -18.1466 N   0  0  0  0  0  0
  -15.3102   17.8734  -17.8210 C   0  0  0  0  0  0
  -15.5797   16.4868  -18.7132 C   0  0  0  0  0  0
  -14.4575   15.0132  -19.1525 C   0  0  0  0  0  0
  -14.7590   13.3100  -19.0261 C   0  0  0  0  0  0
  -16.3377   12.8093  -18.4715 C   0  0  0  0  0  0
  -17.5547   14.0867  -18.0205 C   0  0  0  0  0  0
  -17.2495   15.9470  -18.1665 C   0  0  0  0  0  0
  -18.0963   20.1192  -13.1930 C   0  0  0  0  0  0
  -19.3050   19.2830  -13.0394 C   0  0  0  0  0  0
  -24.1862   23.8036  -13.1859 C   0  0  0  0  0  0
  -23.9524   25.1398  -13.2869 C   0  0  0  0  0  0
  -22.9378   25.5984  -12.5178 C   0  0  0  0  0  0
  1  2  1  0  0  0
  2  3  2  0  0  0
  2 30  1  0  0  0
  3  4  1  0  0  0
  4  5  1  0  0  0
  4 28  2  0  0  0
  5  6  1  0  0  0
  6  7  2  0  0  0
  6  8  2  0  0  0
  6  9  1  0  0  0
  9 10  1  0  0  0
  9 27  1  0  0  0
 10 11  1  0  0  0
 11 12  1  0  0  0
 12 13  1  0  0  0
 12 26  1  0  0  0
 13 14  1  0  0  0
 14 15  1  0  0  0
 15 16  1  0  0  0
 15 19  1  0  0  0
 16 17  2  0  0  0
 17 18  1  0  0  0
 18 19  2  0  0  0
 19 20  1  0  0  0
 20 21  2  0  0  0
 20 25  1  0  0  0
 21 22  1  0  0  0
 22 23  2  0  0  0
 23 24  1  0  0  0
 24 25  2  0  0  0
 26 27  1  0  0  0
 28 29  1  0  0  0
 29 30  2  0  0  0
M  END
>  <CHROM.0>
-174.46037668,-167.69511532,-150.35477327,65.96758729,-30.23432039,-177.90565490
-156.73006615,-35.18883809

>  <CHROM.1>
-78.40349962,152.36111586,-56.75437151,171.70345397,-67.88996259,38.66339145
-135.92055734,-19.34577451,19.74212975,-15.05333833,-2.28225205,-0.33292327
-2.76296653

>  <Name>
F6368-0502

>  <RI>
1.15531e+07

>  <Rbt.Current_Directory>
/home/adria/Escritorio/rDock_CMTR_LC/2pxcA_model/inputs_sah

>  <Rbt.Executable>
rbdock ($Id: //depot/dev/client3/rdock/2013.1/src/exe/rbdock.cxx#4 $)

>  <Rbt.Library>
libRbt.so (2013.1, Build901 2013/11/27)

>  <Rbt.Parameter_File>
/home/adria/Escritorio/rDock_2013.1_src/data/scripts/dock.prm

>  <Rbt.Receptor>
sah_rdock.prm

>  <SCORE>
-300.154

>  <SCORE.INTER>
-14.2506

>  <SCORE.INTER.CONST>
1

>  <SCORE.INTER.POLAR>
0

>  <SCORE.INTER.REPUL>
0.0946208

>  <SCORE.INTER.ROT>
7

>  <SCORE.INTER.VDW>
-27.1237

>  <SCORE.INTER.norm>
-0.475018

>  <SCORE.INTRA>
-282.613

>  <SCORE.INTRA.DIHEDRAL>
-4.34467

>  <SCORE.INTRA.DIHEDRAL.0>
13.9833

>  <SCORE.INTRA.POLAR>
0

>  <SCORE.INTRA.POLAR.0>
0

>  <SCORE.INTRA.REPUL>
0

>  <SCORE.INTRA.REPUL.0>
0

>  <SCORE.INTRA.VDW>
-280.441

>  <SCORE.INTRA.VDW.0>
277.803

>  <SCORE.INTRA.norm>
-9.42045

>  <SCORE.RESTR>
0

>  <SCORE.RESTR.CAVITY>
0

>  <SCORE.RESTR.norm>
0

>  <SCORE.SYSTEM>
-3.29017

>  <SCORE.SYSTEM.CONST>
0

>  <SCORE.SYSTEM.DIHEDRAL>
9.15039

>  <SCORE.SYSTEM.POLAR>
-3.42144

>  <SCORE.SYSTEM.REPUL>
0.0491409

>  <SCORE.SYSTEM.VDW>
3.52182

>  <SCORE.SYSTEM.norm>
-0.109672

>  <SCORE.heavy>
30

>  <SCORE.norm>
-10.0051

$$$$
F6368-0502
  rDOCK(R)          3D
libRbt.so/2013.1/901 2013/11/27
 30 33  0  0  0  0  0  0  0  0999 V2000
  -18.5680   25.2262   -9.8655 C   0  0  0  0  0  0
  -19.8320   25.1078  -10.6323 C   0  0  0  0  0  0
  -20.0901   23.9386  -11.3655 C   0  0  0  0  0  0
  -21.3025   23.8849  -12.0205 C   0  0  0  0  0  0
  -21.5939   22.5581  -13.1781 C   0  0  0  0  0  0
  -23.3006   20.8367  -13.0882 S   0  0  0  0  0  0
  -23.4608   20.0168  -11.8331 O   0  0  0  0  0  0
  -24.7420   21.1235  -13.4450 O   0  0  0  0  0  0
  -22.8825   19.4295  -14.2137 N   0  0  0  0  0  0
  -24.0713   18.5960  -14.2280 C   0  0  0  0  0  0
  -23.8679   17.4739  -15.1635 C   0  0  0  0  0  0
  -22.4717   17.1509  -15.5279 N   0  0  0  0  0  0
  -21.5259   17.0171  -14.3544 C   0  0  0  0  0  0
  -19.9003   17.2038  -14.2614 C   0  0  0  0  0  0
  -19.1973   18.4937  -13.9258 N   0  0  0  0  0  0
  -19.4944   19.0749  -12.7059 C   0  0  0  0  0  0
  -18.8829   20.2962  -12.7006 C   0  0  0  0  0  0
  -18.0462   20.4603  -13.7717 N   0  0  0  0  0  0
  -18.1277   19.3670  -14.5171 C   0  0  0  0  0  0
  -17.2429   19.3071  -15.9330 C   0  0  0  0  0  0
  -15.6996   20.2575  -16.5151 C   0  0  0  0  0  0
  -14.2280   19.6651  -17.2161 C   0  0  0  0  0  0
  -14.1091   17.9475  -17.5104 C   0  0  0  0  0  0
  -15.5029   16.8773  -17.0326 C   0  0  0  0  0  0
  -17.1202   17.5067  -16.2821 C   0  0  0  0  0  0
  -21.9756   18.1629  -16.4350 C   0  0  0  0  0  0
  -21.7591   19.3830  -15.6299 C   0  0  0  0  0  0
  -22.1557   25.0687  -11.9189 C   0  0  0  0  0  0
  -21.9032   26.2049  -11.2150 C   0  0  0  0  0  0
  -20.7346   26.2021  -10.5326 C   0  0  0  0  0  0
  1  2  1  0  0  0
  2  3  2  0  0  0
  2 30  1  0  0  0
  3  4  1  0  0  0
  4  5  1  0  0  0
  4 28  2  0  0  0
  5  6  1  0  0  0
  6  7  2  0  0  0
  6  8  2  0  0  0
  6  9  1  0  0  0
  9 10  1  0  0  0
  9 27  1  0  0  0
 10 11  1  0  0  0
 11 12  1  0  0  0
 12 13  1  0  0  0
 12 26  1  0  0  0
 13 14  1  0  0  0
 14 15  1  0  0  0
 15 16  1  0  0  0
 15 19  1  0  0  0
 16 17  2  0  0  0
 17 18  1  0  0  0
 18 19  2  0  0  0
 19 20  1  0  0  0
 20 21  2  0  0  0
 20 25  1  0  0  0
 21 22  1  0  0  0
 22 23  2  0  0  0
 23 24  1  0  0  0
 24 25  2  0  0  0
 26 27  1  0  0  0
 28 29  1  0  0  0
 29 30  2  0  0  0
M  END
>  <CHROM.0>
-63.30971915,-72.60361767,72.49017559,147.12497158,-29.52085816,58.77247768
-155.73042363,-163.36812902

>  <CHROM.1>
118.74035637,-51.90331707,-170.91274736,-155.25553484,91.28927856,58.95892602
-167.98693088,-20.36423984,20.44329511,-13.85164132,-2.12300069,-0.19992186
-2.59201898

>  <Name>
F6368-0502

>  <RI>
1.15531e+07

>  <Rbt.Current_Directory>
/home/adria/Escritorio/rDock_CMTR_LC/2pxcA_model/inputs_sah

>  <Rbt.Executable>
rbdock ($Id: //depot/dev/client3/rdock/2013.1/src/exe/rbdock.cxx#4 $)

>  <Rbt.Library>
libRbt.so (2013.1, Build901 2013/11/27)

>  <Rbt.Parameter_File>
/home/adria/Escritorio/rDock_2013.1_src/data/scripts/dock.prm

>  <Rbt.Receptor>
sah_rdock.prm

>  <SCORE>
-303.076

>  <SCORE.INTER>
-16.9147

>  <SCORE.INTER.CONST>
1

>  <SCORE.INTER.POLAR>
0

>  <SCORE.INTER.REPUL>
0

>  <SCORE.INTER.ROT>
7

>  <SCORE.INTER.VDW>
-29.3147

>  <SCORE.INTER.norm>
-0.563823

>  <SCORE.INTRA>
-281.453

>  <SCORE.INTRA.DIHEDRAL>
-3.64054

>  <SCORE.INTRA.DIHEDRAL.0>
13.9833

>  <SCORE.INTRA.POLAR>
0

>  <SCORE.INTRA.POLAR.0>
0

>  <SCORE.INTRA.REPUL>
0

>  <SCORE.INTRA.REPUL.0>
0

>  <SCORE.INTRA.VDW>
-279.632

>  <SCORE.INTRA.VDW.0>
277.803

>  <SCORE.INTRA.norm>
-9.38176

>  <SCORE.RESTR>
0

>  <SCORE.RESTR.CAVITY>
0

>  <SCORE.RESTR.norm>
0

>  <SCORE.SYSTEM>
-4.70869

>  <SCORE.SYSTEM.CONST>
0

>  <SCORE.SYSTEM.DIHEDRAL>
10.6763

>  <SCORE.SYSTEM.POLAR>
-4.1525

>  <SCORE.SYSTEM.REPUL>
0.03782

>  <SCORE.SYSTEM.VDW>
3.88259

>  <SCORE.SYSTEM.norm>
-0.156956

>  <SCORE.heavy>
30

>  <SCORE.norm>
-10.1025

$$$$
F6368-0502
  rDOCK(R)          3D
libRbt.so/2013.1/901 2013/11/27
 30 33  0  0  0  0  0  0  0  0999 V2000
  -14.4720   15.2223  -18.3191 C   0  0  0  0  0  0
  -15.2771   16.4035  -17.9239 C   0  0  0  0  0  0
  -16.5986   16.2251  -17.4844 C   0  0  0  0  0  0
  -17.2711   17.3648  -17.0964 C   0  0  0  0  0  0
  -19.0240   17.2597  -16.7777 C   0  0  0  0  0  0
  -20.5262   19.0231  -16.0580 S   0  0  0  0  0  0
  -19.9644   20.3768  -15.7043 O   0  0  0  0  0  0
  -21.7488   19.4064  -16.8614 O   0  0  0  0  0  0
  -21.2430   18.6454  -14.3950 N   0  0  0  0  0  0
  -22.0654   17.4667  -14.6011 C   0  0  0  0  0  0
  -22.6293   17.0345  -13.3085 C   0  0  0  0  0  0
  -22.6515   18.0350  -12.2199 N   0  0  0  0  0  0
  -23.2291   19.3789  -12.6069 C   0  0  0  0  0  0
  -24.1748   20.4210  -11.7667 C   0  0  0  0  0  0
  -24.6667   21.7484  -12.2829 N   0  0  0  0  0  0
  -24.4095   22.8625  -11.5038 C   0  0  0  0  0  0
  -25.0880   23.9000  -12.0772 C   0  0  0  0  0  0
  -25.6162   23.5628  -13.2944 N   0  0  0  0  0  0
  -25.3282   22.2883  -13.5188 C   0  0  0  0  0  0
  -25.8976   21.5839  -14.9227 C   0  0  0  0  0  0
  -26.1124   22.2544  -16.6913 C   0  0  0  0  0  0
  -25.6207   21.5699  -18.2070 C   0  0  0  0  0  0
  -24.8583   19.9988  -18.1729 C   0  0  0  0  0  0
  -24.5852   19.1911  -16.5638 C   0  0  0  0  0  0
  -25.1282   19.9147  -14.9035 C   0  0  0  0  0  0
  -21.3068   18.2139  -11.7172 C   0  0  0  0  0  0
  -20.5663   18.9687  -12.7496 C   0  0  0  0  0  0
  -16.5510   18.6304  -17.2351 C   0  0  0  0  0  0
  -15.2734   18.8050  -17.6679 C   0  0  0  0  0  0
  -14.6190   17.6627  -17.9815 C   0  0  0  0  0  0
  1  2  1  0  0  0
  2  3  2  0  0  0
  2 30  1  0  0  0
  3  4  1  0  0  0
  4  5  1  0  0  0
  4 28  2  0  0  0
  5  6  1  0  0  0
  6  7  2  0  0  0
  6  8  2  0  0  0
  6  9  1  0  0  0
  9 10  1  0  0  0
  9 27  1  0  0  0
 10 11  1  0  0  0
 11 12  1  0  0  0
 12 13  1  0  0  0
 12 26  1  0  0  0
 13 14  1  0  0  0
 14 15  1  0  0  0
 15 16  1  0  0  0
 15 19  1  0  0  0
 16 17  2  0  0  0
 17 18  1  0  0  0
 18 19  2  0  0  0
 19 20  1  0  0  0
 20 21  2  0  0  0
 20 25  1  0  0  0
 21 22  1  0  0  0
 22 23  2  0  0  0
 23 24  1  0  0  0
 24 25  2  0  0  0
 26 27  1  0  0  0
 28 29  1  0  0  0
 29 30  2  0  0  0
M  END
>  <CHROM.0>
-59.85858245,68.27013900,72.74932678,63.91258251,167.64022607,-57.96572540
-156.38791475,-164.57402722

>  <CHROM.1>
179.15841998,-5.75575168,-65.51789328,142.15595074,179.23847060,-126.33094501
-152.89668734,-21.49024516,19.40702507,-15.16905765,-0.31522485,-0.50530884
1.67239911

>  <Name>
F6368-0502

>  <RI>
1.15531e+07

>  <Rbt.Current_Directory>
/home/adria/Escritorio/rDock_CMTR_LC/2pxcA_model/inputs_sah

>  <Rbt.Executable>
rbdock ($Id: //depot/dev/client3/rdock/2013.1/src/exe/rbdock.cxx#4 $)

>  <Rbt.Library>
libRbt.so (2013.1, Build901 2013/11/27)

>  <Rbt.Parameter_File>
/home/adria/Escritorio/rDock_2013.1_src/data/scripts/dock.prm

>  <Rbt.Receptor>
sah_rdock.prm

>  <SCORE>
-295.606

>  <SCORE.INTER>
-10.9608

>  <SCORE.INTER.CONST>
1

>  <SCORE.INTER.POLAR>
-0.20086

>  <SCORE.INTER.REPUL>
0.0096066

>  <SCORE.INTER.ROT>
7

>  <SCORE.INTER.VDW>
-22.7259

>  <SCORE.INTER.norm>
-0.365361

>  <SCORE.INTRA>
-281.956

>  <SCORE.INTRA.DIHEDRAL>
-3.12979

>  <SCORE.INTRA.DIHEDRAL.0>
13.9833

>  <SCORE.INTRA.POLAR>
0

>  <SCORE.INTRA.POLAR.0>
0

>  <SCORE.INTRA.REPUL>
0

>  <SCORE.INTRA.REPUL.0>
0

>  <SCORE.INTRA.VDW>
-280.391

>  <SCORE.INTRA.VDW.0>
277.803

>  <SCORE.INTRA.norm>
-9.39855

>  <SCORE.RESTR>
0

>  <SCORE.RESTR.CAVITY>
0

>  <SCORE.RESTR.norm>
0

>  <SCORE.SYSTEM>
-2.68907

>  <SCORE.SYSTEM.CONST>
0

>  <SCORE.SYSTEM.DIHEDRAL>
3.08106

>  <SCORE.SYSTEM.POLAR>
-3.73938

>  <SCORE.SYSTEM.VDW>
8.48429

>  <SCORE.SYSTEM.norm>
-0.0896357

>  <SCORE.heavy>
30

>  <SCORE.norm>
-9.85354

$$$$
F6368-0502
  rDOCK(R)          3D
libRbt.so/2013.1/901 2013/11/27
 30 33  0  0  0  0  0  0  0  0999 V2000
  -14.5019   19.4011  -16.9180 C   0  0  0  0  0  0
  -15.9849   19.3800  -16.9123 C   0  0  0  0  0  0
  -16.6898   20.4242  -16.2927 C   0  0  0  0  0  0
  -18.0655   20.3565  -16.3622 C   0  0  0  0  0  0
  -19.0308   21.4940  -15.3826 C   0  0  0  0  0  0
  -19.6754   21.2940  -13.0527 S   0  0  0  0  0  0
  -18.7191   20.6665  -12.0704 O   0  0  0  0  0  0
  -20.1837   22.4784  -12.2615 O   0  0  0  0  0  0
  -21.0382   20.0603  -12.8457 N   0  0  0  0  0  0
  -21.1655   19.4222  -14.1436 C   0  0  0  0  0  0
  -22.1852   18.3593  -14.0656 C   0  0  0  0  0  0
  -23.1406   18.4297  -12.9392 N   0  0  0  0  0  0
  -23.7936   19.7809  -12.7464 C   0  0  0  0  0  0
  -24.6933   20.3697  -11.5095 C   0  0  0  0  0  0
  -24.1885   20.6020  -10.1089 N   0  0  0  0  0  0
  -24.0391   19.4896   -9.2999 C   0  0  0  0  0  0
  -23.7437   19.9571   -8.0509 C   0  0  0  0  0  0
  -23.5035   21.3049   -8.0466 N   0  0  0  0  0  0
  -23.6783   21.7487   -9.2835 C   0  0  0  0  0  0
  -23.4999   23.3850   -9.5696 C   0  0  0  0  0  0
  -22.4365   24.7199   -8.7262 C   0  0  0  0  0  0
  -21.3824   25.9068   -9.4248 C   0  0  0  0  0  0
  -21.2854   25.9735  -11.1674 C   0  0  0  0  0  0
  -22.2519   24.7800  -12.1459 C   0  0  0  0  0  0
  -23.4176   23.4900  -11.4028 C   0  0  0  0  0  0
  -22.4620   18.0430  -11.7213 C   0  0  0  0  0  0
  -21.5597   19.1585  -11.3676 C   0  0  0  0  0  0
  -18.6315   19.1826  -17.0264 C   0  0  0  0  0  0
  -17.9494   18.1666  -17.6204 C   0  0  0  0  0  0
  -16.6024   18.2933  -17.5905 C   0  0  0  0  0  0
  1  2  1  0  0  0
  2  3  2  0  0  0
  2 30  1  0  0  0
  3  4  1  0  0  0
  4  5  1  0  0  0
  4 28  2  0  0  0
  5  6  1  0  0  0
  6  7  2  0  0  0
  6  8  2  0  0  0
  6  9  1  0  0  0
  9 10  1  0  0  0
  9 27  1  0  0  0
 10 11  1  0  0  0
 11 12  1  0  0  0
 12 13  1  0  0  0
 12 26  1  0  0  0
 13 14  1  0  0  0
 14 15  1  0  0  0
 15 16  1  0  0  0
 15 19  1  0  0  0
 16 17  2  0  0  0
 17 18  1  0  0  0
 18 19  2  0  0  0
 19 20  1  0  0  0
 20 21  2  0  0  0
 20 25  1  0  0  0
 21 22  1  0  0  0
 22 23  2  0  0  0
 23 24  1  0  0  0
 24 25  2  0  0  0
 26 27  1  0  0  0
 28 29  1  0  0  0
 29 30  2  0  0  0
M  END
>  <CHROM.0>
176.13083039,-72.14923499,68.97205451,62.22967068,-30.16488931,56.19251509
84.00821068,-161.58725598

>  <CHROM.1>
-83.62705179,35.85250552,8.83032822,-168.38490865,64.88722466,-76.69343865
-160.36717792,-20.91626610,20.85952513,-12.68510059,-0.60684528,0.67898767
0.44755984

>  <Name>
F6368-0502

>  <RI>
1.15531e+07

>  <Rbt.Current_Directory>
/home/adria/Escritorio/rDock_CMTR_LC/2pxcA_model/inputs_sah

>  <Rbt.Executable>
rbdock ($Id: //depot/dev/client3/rdock/2013.1/src/exe/rbdock.cxx#4 $)

>  <Rbt.Library>
libRbt.so (2013.1, Build901 2013/11/27)

>  <Rbt.Parameter_File>
/home/adria/Escritorio/rDock_2013.1_src/data/scripts/dock.prm

>  <Rbt.Receptor>
sah_rdock.prm

>  <SCORE>
-308.631

>  <SCORE.INTER>
-17.4499

>  <SCORE.INTER.CONST>
1

>  <SCORE.INTER.POLAR>
-0.648552

>  <SCORE.INTER.REPUL>
0.0697281

>  <SCORE.INTER.ROT>
7

>  <SCORE.INTER.VDW>
-27.9934

>  <SCORE.INTER.norm>
-0.581663

>  <SCORE.INTRA>
-284.108

>  <SCORE.INTRA.DIHEDRAL>
-6.0594

>  <SCORE.INTRA.DIHEDRAL.0>
13.9833

>  <SCORE.INTRA.POLAR>
0

>  <SCORE.INTRA.POLAR.0>
0

>  <SCORE.INTRA.REPUL>
0

>  <SCORE.INTRA.REPUL.0>
0

>  <SCORE.INTRA.VDW>
-281.078

>  <SCORE.INTRA.VDW.0>
277.803

>  <SCORE.INTRA.norm>
-9.47025

>  <SCORE.RESTR>
0

>  <SCORE.RESTR.CAVITY>
0

>  <SCORE.RESTR.norm>
0

>  <SCORE.SYSTEM>
-7.07356

>  <SCORE.SYSTEM.CONST>
0

>  <SCORE.SYSTEM.DIHEDRAL>
6.32516

>  <SCORE.SYSTEM.POLAR>
-3.9249

>  <SCORE.SYSTEM.REPUL>
0.036981

>  <SCORE.SYSTEM.VDW>
2.9236

>  <SCORE.SYSTEM.norm>
-0.235785

>  <SCORE.heavy>
30

>  <SCORE.norm>
-10.2877

$$$$
F6368-0502
  rDOCK(R)          3D
libRbt.so/2013.1/901 2013/11/27
 30 33  0  0  0  0  0  0  0  0999 V2000
  -22.5823   26.1309  -12.1081 C   0  0  0  0  0  0
  -22.9443   24.7049  -12.2962 C   0  0  0  0  0  0
  -22.2463   23.7141  -11.5876 C   0  0  0  0  0  0
  -22.6651   22.4149  -11.7837 C   0  0  0  0  0  0
  -21.6701   21.0851  -11.1302 C   0  0  0  0  0  0
  -21.6214   18.7636  -11.8319 S   0  0  0  0  0  0
  -20.7371   17.7864  -11.0996 O   0  0  0  0  0  0
  -22.8880   17.9544  -11.9995 O   0  0  0  0  0  0
  -20.8131   18.5882  -13.4866 N   0  0  0  0  0  0
  -20.7135   17.1562  -13.7044 C   0  0  0  0  0  0
  -20.1448   16.9056  -15.0420 C   0  0  0  0  0  0
  -19.4092   18.0206  -15.6762 N   0  0  0  0  0  0
  -18.3709   18.6774  -14.7933 C   0  0  0  0  0  0
  -17.1518   19.7102  -15.1586 C   0  0  0  0  0  0
  -15.9910   19.3896  -16.0642 N   0  0  0  0  0  0
  -15.1210   20.4228  -16.3641 C   0  0  0  0  0  0
  -14.2688   19.9455  -17.3189 C   0  0  0  0  0  0
  -14.4156   18.5988  -17.5167 N   0  0  0  0  0  0
  -15.3938   18.1803  -16.7258 C   0  0  0  0  0  0
  -15.8318   16.5695  -16.7938 C   0  0  0  0  0  0
  -17.5268   15.7042  -16.7451 C   0  0  0  0  0  0
  -18.1798   14.4792  -17.7847 C   0  0  0  0  0  0
  -17.1488   13.8646  -19.0535 C   0  0  0  0  0  0
  -15.4780   14.5639  -19.2420 C   0  0  0  0  0  0
  -14.7438   15.8879  -18.1093 C   0  0  0  0  0  0
  -20.3586   19.0149  -16.1271 C   0  0  0  0  0  0
  -20.8671   19.6934  -14.9169 C   0  0  0  0  0  0
  -23.7508   22.2137  -12.7430 C   0  0  0  0  0  0
  -24.4226   23.1723  -13.4357 C   0  0  0  0  0  0
  -24.0309   24.4411  -13.1747 C   0  0  0  0  0  0
  1  2  1  0  0  0
  2  3  2  0  0  0
  2 30  1  0  0  0
  3  4  1  0  0  0
  4  5  1  0  0  0
  4 28  2  0  0  0
  5  6  1  0  0  0
  6  7  2  0  0  0
  6  8  2  0  0  0
  6  9  1  0  0  0
  9 10  1  0  0  0
  9 27  1  0  0  0
 10 11  1  0  0  0
 11 12  1  0  0  0
 12 13  1  0  0  0
 12 26  1  0  0  0
 13 14  1  0  0  0
 14 15  1  0  0  0
 15 16  1  0  0  0
 15 19  1  0  0  0
 16 17  2  0  0  0
 17 18  1  0  0  0
 18 19  2  0  0  0
 19 20  1  0  0  0
 20 21  2  0  0  0
 20 25  1  0  0  0
 21 22  1  0  0  0
 22 23  2  0  0  0
 23 24  1  0  0  0
 24 25  2  0  0  0
 26 27  1  0  0  0
 28 29  1  0  0  0
 29 30  2  0  0  0
M  END
>  <CHROM.0>
38.80942694,-77.67098872,-136.86510129,63.52237016,-31.07612495,179.57452241
66.54707797,-50.44961340

>  <CHROM.1>
-158.10736395,-177.55317520,173.54741426,166.13602802,-62.21239630,173.92798963
30.65859052,-19.52672875,19.22617959,-14.60831440,-2.47061765,-0.59223145
-3.02405611

>  <Name>
F6368-0502

>  <RI>
1.15531e+07

>  <Rbt.Current_Directory>
/home/adria/Escritorio/rDock_CMTR_LC/2pxcA_model/inputs_sah

>  <Rbt.Executable>
rbdock ($Id: //depot/dev/client3/rdock/2013.1/src/exe/rbdock.cxx#4 $)

>  <Rbt.Library>
libRbt.so (2013.1, Build901 2013/11/27)

>  <Rbt.Parameter_File>
/home/adria/Escritorio/rDock_2013.1_src/data/scripts/dock.prm

>  <Rbt.Receptor>
sah_rdock.prm

>  <SCORE>
-299.723

>  <SCORE.INTER>
-17.3272

>  <SCORE.INTER.CONST>
1

>  <SCORE.INTER.POLAR>
-0.823394

>  <SCORE.INTER.REPUL>
0.0806374

>  <SCORE.INTER.ROT>
7

>  <SCORE.INTER.VDW>
-27.3309

>  <SCORE.INTER.norm>
-0.577575

>  <SCORE.INTRA>
-282.828

>  <SCORE.INTRA.DIHEDRAL>
-7.56829

>  <SCORE.INTRA.DIHEDRAL.0>
13.9833

>  <SCORE.INTRA.POLAR>
0

>  <SCORE.INTRA.POLAR.0>
0

>  <SCORE.INTRA.REPUL>
0

>  <SCORE.INTRA.REPUL.0>
0

>  <SCORE.INTRA.VDW>
-279.044

>  <SCORE.INTRA.VDW.0>
277.803

>  <SCORE.INTRA.norm>
-9.42761

>  <SCORE.RESTR>
0

>  <SCORE.RESTR.CAVITY>
0

>  <SCORE.RESTR.norm>
0

>  <SCORE.SYSTEM>
0.432217

>  <SCORE.SYSTEM.CONST>
0

>  <SCORE.SYSTEM.DIHEDRAL>
12.7901

>  <SCORE.SYSTEM.POLAR>
-3.52327

>  <SCORE.SYSTEM.REPUL>
0.183379

>  <SCORE.SYSTEM.VDW>
5.0994

>  <SCORE.SYSTEM.norm>
0.0144072

>  <SCORE.heavy>
30

>  <SCORE.norm>
-9.99078

$$$$
F6368-0502
  rDOCK(R)          3D
libRbt.so/2013.1/901 2013/11/27
 30 33  0  0  0  0  0  0  0  0999 V2000
  -25.5054   18.6644  -14.6955 C   0  0  0  0  0  0
  -24.9177   18.3460  -13.3715 C   0  0  0  0  0  0
  -23.7379   18.9892  -12.9650 C   0  0  0  0  0  0
  -23.2732   18.6718  -11.7060 C   0  0  0  0  0  0
  -21.6523   19.2403  -11.2213 C   0  0  0  0  0  0
  -20.0121   20.4185  -12.5651 S   0  0  0  0  0  0
  -20.3588   21.7667  -13.1441 O   0  0  0  0  0  0
  -18.6017   20.6567  -12.0740 O   0  0  0  0  0  0
  -19.7336   19.5559  -14.1777 N   0  0  0  0  0  0
  -18.8640   18.4378  -13.8586 C   0  0  0  0  0  0
  -18.6384   17.6341  -15.0745 C   0  0  0  0  0  0
  -18.9117   18.2905  -16.3710 N   0  0  0  0  0  0
  -18.2801   19.6556  -16.5350 C   0  0  0  0  0  0
  -16.8051   20.2145  -16.0898 C   0  0  0  0  0  0
  -15.5140   19.9075  -16.8034 N   0  0  0  0  0  0
  -14.5021   20.8462  -16.7079 C   0  0  0  0  0  0
  -13.5157   20.4391  -17.5605 C   0  0  0  0  0  0
  -13.7490   19.1863  -18.0608 N   0  0  0  0  0  0
  -14.9110   18.7700  -17.5772 C   0  0  0  0  0  0
  -15.4812   17.2769  -18.0641 C   0  0  0  0  0  0
  -14.7303   15.9227  -19.1714 C   0  0  0  0  0  0
  -14.5840   14.2165  -18.8966 C   0  0  0  0  0  0
  -15.2636   13.5762  -17.4205 C   0  0  0  0  0  0
  -16.0428   14.7259  -16.2427 C   0  0  0  0  0  0
  -16.2252   16.5855  -16.5322 C   0  0  0  0  0  0
  -20.3431   18.3955  -16.5532 C   0  0  0  0  0  0
  -20.8114   19.4462  -15.6255 C   0  0  0  0  0  0
  -24.0315   17.6668  -10.9612 C   0  0  0  0  0  0
  -25.1705   17.0375  -11.3573 C   0  0  0  0  0  0
  -25.6358   17.4162  -12.5704 C   0  0  0  0  0  0
  1  2  1  0  0  0
  2  3  2  0  0  0
  2 30  1  0  0  0
  3  4  1  0  0  0
  4  5  1  0  0  0
  4 28  2  0  0  0
  5  6  1  0  0  0
  6  7  2  0  0  0
  6  8  2  0  0  0
  6  9  1  0  0  0
  9 10  1  0  0  0
  9 27  1  0  0  0
 10 11  1  0  0  0
 11 12  1  0  0  0
 12 13  1  0  0  0
 12 26  1  0  0  0
 13 14  1  0  0  0
 14 15  1  0  0  0
 15 16  1  0  0  0
 15 19  1  0  0  0
 16 17  2  0  0  0
 17 18  1  0  0  0
 18 19  2  0  0  0
 19 20  1  0  0  0
 20 21  2  0  0  0
 20 25  1  0  0  0
 21 22  1  0  0  0
 22 23  2  0  0  0
 23 24  1  0  0  0
 24 25  2  0  0  0
 26 27  1  0  0  0
 28 29  1  0  0  0
 29 30  2  0  0  0
M  END
>  <CHROM.0>
-63.15882955,-169.19614847,-166.63993335,-57.04029613,167.85555691,-179.14661683
82.79010125,-159.03510581

>  <CHROM.1>
-4.65565607,60.95695286,-78.29049130,39.95305193,76.05485343,152.52473844
173.99573442,-19.05770976,18.54901711,-14.98780296,2.82283973,0.45763951
0.42472599

>  <Name>
F6368-0502

>  <RI>
1.15531e+07

>  <Rbt.Current_Directory>
/home/adria/Escritorio/rDock_CMTR_LC/2pxcA_model/inputs_sah

>  <Rbt.Executable>
rbdock ($Id: //depot/dev/client3/rdock/2013.1/src/exe/rbdock.cxx#4 $)

>  <Rbt.Library>
libRbt.so (2013.1, Build901 2013/11/27)

>  <Rbt.Parameter_File>
/home/adria/Escritorio/rDock_2013.1_src/data/scripts/dock.prm

>  <Rbt.Receptor>
sah_rdock.prm

>  <SCORE>
-301.31

>  <SCORE.INTER>
-17.1403

>  <SCORE.INTER.CONST>
1

>  <SCORE.INTER.POLAR>
-0.894427

>  <SCORE.INTER.REPUL>
0

>  <SCORE.INTER.ROT>
7

>  <SCORE.INTER.VDW>
-26.4993

>  <SCORE.INTER.norm>
-0.571344

>  <SCORE.INTRA>
-283.201

>  <SCORE.INTRA.DIHEDRAL>
-5.54793

>  <SCORE.INTRA.DIHEDRAL.0>
13.9833

>  <SCORE.INTRA.POLAR>
0

>  <SCORE.INTRA.POLAR.0>
0

>  <SCORE.INTRA.REPUL>
0

>  <SCORE.INTRA.REPUL.0>
0

>  <SCORE.INTRA.VDW>
-280.427

>  <SCORE.INTRA.VDW.0>
277.803

>  <SCORE.INTRA.norm>
-9.44003

>  <SCORE.RESTR>
0.00106597

>  <SCORE.RESTR.CAVITY>
0.00106597

>  <SCORE.RESTR.norm>
3.55323e-05

>  <SCORE.SYSTEM>
-0.969488

>  <SCORE.SYSTEM.CONST>
0

>  <SCORE.SYSTEM.DIHEDRAL>
3.53259

>  <SCORE.SYSTEM.POLAR>
-3.55231

>  <SCORE.SYSTEM.VDW>
9.34207

>  <SCORE.SYSTEM.norm>
-0.0323163

>  <SCORE.heavy>
30

>  <SCORE.norm>
-10.0437

$$$$
F6368-0502
  rDOCK(R)          3D
libRbt.so/2013.1/901 2013/11/27
 30 33  0  0  0  0  0  0  0  0999 V2000
  -25.6456   19.0511  -14.4248 C   0  0  0  0  0  0
  -24.9750   18.5518  -13.1998 C   0  0  0  0  0  0
  -23.8146   19.1916  -12.7360 C   0  0  0  0  0  0
  -23.2700   18.6963  -11.5698 C   0  0  0  0  0  0
  -21.6616   19.2779  -11.0596 C   0  0  0  0  0  0
  -20.0219   20.4950  -12.3686 S   0  0  0  0  0  0
  -20.4137   21.7951  -13.0240 O   0  0  0  0  0  0
  -18.6558   20.8370  -11.8172 O   0  0  0  0  0  0
  -19.6082   19.5846  -13.9249 N   0  0  0  0  0  0
  -19.9800   18.2060  -13.6619 C   0  0  0  0  0  0
  -19.7574   17.4013  -14.8779 C   0  0  0  0  0  0
  -18.8471   17.9662  -15.8970 N   0  0  0  0  0  0
  -17.5213   18.4580  -15.3587 C   0  0  0  0  0  0
  -16.3326   19.3320  -16.0724 C   0  0  0  0  0  0
  -15.4726   18.8505  -17.2121 N   0  0  0  0  0  0
  -14.4589   19.6913  -17.6361 C   0  0  0  0  0  0
  -13.9390   19.1298  -18.7675 C   0  0  0  0  0  0
  -14.4309   17.8724  -18.9939 N   0  0  0  0  0  0
  -15.3110   17.6067  -18.0388 C   0  0  0  0  0  0
  -16.1175   16.1444  -18.0907 C   0  0  0  0  0  0
  -15.9232   14.6185  -19.2122 C   0  0  0  0  0  0
  -15.7965   12.9402  -18.7935 C   0  0  0  0  0  0
  -15.9171   12.5195  -17.1027 C   0  0  0  0  0  0
  -16.1247   13.8527  -15.8797 C   0  0  0  0  0  0
  -16.2803   15.6853  -16.3184 C   0  0  0  0  0  0
  -19.5209   19.0473  -16.5829 C   0  0  0  0  0  0
  -19.5820   20.1777  -15.6330 C   0  0  0  0  0  0
  -23.9316   17.5330  -10.9795 C   0  0  0  0  0  0
  -25.0516   16.9077  -11.4322 C   0  0  0  0  0  0
  -25.5981   17.4555  -12.5425 C   0  0  0  0  0  0
  1  2  1  0  0  0
  2  3  2  0  0  0
  2 30  1  0  0  0
  3  4  1  0  0  0
  4  5  1  0  0  0
  4 28  2  0  0  0
  5  6  1  0  0  0
  6  7  2  0  0  0
  6  8  2  0  0  0
  6  9  1  0  0  0
  9 10  1  0  0  0
  9 27  1  0  0  0
 10 11  1  0  0  0
 11 12  1  0  0  0
 12 13  1  0  0  0
 12 26  1  0  0  0
 13 14  1  0  0  0
 14 15  1  0  0  0
 15 16  1  0  0  0
 15 19  1  0  0  0
 16 17  2  0  0  0
 17 18  1  0  0  0
 18 19  2  0  0  0
 19 20  1  0  0  0
 20 21  2  0  0  0
 20 25  1  0  0  0
 21 22  1  0  0  0
 22 23  2  0  0  0
 23 24  1  0  0  0
 24 25  2  0  0  0
 26 27  1  0  0  0
 28 29  1  0  0  0
 29 30  2  0  0  0
M  END
>  <CHROM.0>
-62.05858897,65.72362336,76.28164560,62.39622229,-30.55068206,-61.94085158
-36.87363086,-162.10252790

>  <CHROM.1>
-14.63414245,56.12425188,-21.45086486,-170.01461454,-66.47724883,-176.00227259
176.93053169,-19.18306771,18.15066469,-14.94913792,2.70076915,0.49990652
0.36445617

>  <Name>
F6368-0502

>  <RI>
1.15531e+07

>  <Rbt.Current_Directory>
/home/adria/Escritorio/rDock_CMTR_LC/2pxcA_model/inputs_sah

>  <Rbt.Executable>
rbdock ($Id: //depot/dev/client3/rdock/2013.1/src/exe/rbdock.cxx#4 $)

>  <Rbt.Library>
libRbt.so (2013.1, Build901 2013/11/27)

>  <Rbt.Parameter_File>
/home/adria/Escritorio/rDock_2013.1_src/data/scripts/dock.prm

>  <Rbt.Receptor>
sah_rdock.prm

>  <SCORE>
-302.587

>  <SCORE.INTER>
-11.7059

>  <SCORE.INTER.CONST>
1

>  <SCORE.INTER.POLAR>
0

>  <SCORE.INTER.REPUL>
0.00448929

>  <SCORE.INTER.ROT>
7

>  <SCORE.INTER.VDW>
-24.1283

>  <SCORE.INTER.norm>
-0.390196

>  <SCORE.INTRA>
-283.506

>  <SCORE.INTRA.DIHEDRAL>
-5.9373

>  <SCORE.INTRA.DIHEDRAL.0>
13.9833

>  <SCORE.INTRA.POLAR>
0

>  <SCORE.INTRA.POLAR.0>
0

>  <SCORE.INTRA.REPUL>
0

>  <SCORE.INTRA.REPUL.0>
0

>  <SCORE.INTRA.VDW>
-280.537

>  <SCORE.INTRA.VDW.0>
277.803

>  <SCORE.INTRA.norm>
-9.4502

>  <SCORE.RESTR>
0

>  <SCORE.RESTR.CAVITY>
0

>  <SCORE.RESTR.norm>
0

>  <SCORE.SYSTEM>
-7.37528

>  <SCORE.SYSTEM.CONST>
0

>  <SCORE.SYSTEM.DIHEDRAL>
5.94996

>  <SCORE.SYSTEM.POLAR>
-3.76639

>  <SCORE.SYSTEM.VDW>
2.45545

>  <SCORE.SYSTEM.norm>
-0.245843

>  <SCORE.heavy>
30

>  <SCORE.norm>
-10.0862

$$$$
F6368-0502
  rDOCK(R)          3D
libRbt.so/2013.1/901 2013/11/27
 30 33  0  0  0  0  0  0  0  0999 V2000
  -18.1498   13.2473  -14.1595 C   0  0  0  0  0  0
  -17.4043   13.7777  -15.3268 C   0  0  0  0  0  0
  -17.8714   14.9282  -15.9821 C   0  0  0  0  0  0
  -17.1046   15.3846  -17.0335 C   0  0  0  0  0  0
  -17.7609   16.6753  -18.0769 C   0  0  0  0  0  0
  -17.8581   19.0582  -17.6340 S   0  0  0  0  0  0
  -16.5764   19.8312  -17.4523 O   0  0  0  0  0  0
  -18.6549   20.0001  -18.5088 O   0  0  0  0  0  0
  -18.5519   19.3919  -15.9519 N   0  0  0  0  0  0
  -18.4833   18.1176  -15.2594 C   0  0  0  0  0  0
  -18.9482   18.2925  -13.8706 C   0  0  0  0  0  0
  -19.7654   19.4912  -13.5844 N   0  0  0  0  0  0
  -20.9152   19.7169  -14.5416 C   0  0  0  0  0  0
  -22.4798   19.2340  -14.4701 C   0  0  0  0  0  0
  -23.4064   19.4781  -13.3071 N   0  0  0  0  0  0
  -24.0630   18.3791  -12.7826 C   0  0  0  0  0  0
  -24.9594   18.8627  -11.8725 C   0  0  0  0  0  0
  -24.7871   20.2003  -11.6373 N   0  0  0  0  0  0
  -23.8036   20.6229  -12.4193 C   0  0  0  0  0  0
  -23.4040   22.2447  -12.3816 C   0  0  0  0  0  0
  -23.6220   23.5824  -11.0448 C   0  0  0  0  0  0
  -22.4762   24.7222  -10.4156 C   0  0  0  0  0  0
  -20.8772   24.7299  -11.1183 C   0  0  0  0  0  0
  -20.4895   23.5269  -12.4293 C   0  0  0  0  0  0
  -21.7295   22.2880  -13.1383 C   0  0  0  0  0  0
  -18.9069   20.6557  -13.5775 C   0  0  0  0  0  0
  -18.5413   20.9198  -14.9848 C   0  0  0  0  0  0
  -15.9244   14.5917  -17.3770 C   0  0  0  0  0  0
  -15.4752   13.4728  -16.7475 C   0  0  0  0  0  0
  -16.2137   13.0859  -15.6815 C   0  0  0  0  0  0
  1  2  1  0  0  0
  2  3  2  0  0  0
  2 30  1  0  0  0
  3  4  1  0  0  0
  4  5  1  0  0  0
  4 28  2  0  0  0
  5  6  1  0  0  0
  6  7  2  0  0  0
  6  8  2  0  0  0
  6  9  1  0  0  0
  9 10  1  0  0  0
  9 27  1  0  0  0
 10 11  1  0  0  0
 11 12  1  0  0  0
 12 13  1  0  0  0
 12 26  1  0  0  0
 13 14  1  0  0  0
 14 15  1  0  0  0
 15 16  1  0  0  0
 15 19  1  0  0  0
 16 17  2  0  0  0
 17 18  1  0  0  0
 18 19  2  0  0  0
 19 20  1  0  0  0
 20 21  2  0  0  0
 20 25  1  0  0  0
 21 22  1  0  0  0
 22 23  2  0  0  0
 23 24  1  0  0  0
 24 25  2  0  0  0
 26 27  1  0  0  0
 28 29  1  0  0  0
 29 30  2  0  0  0
M  END
>  <CHROM.0>
-175.72171057,68.92807602,-10.17470518,66.38609729,-30.04689826,65.78337544
-37.91642105,-158.86326153

>  <CHROM.1>
78.82832290,62.47172065,15.49941889,91.96406548,53.20137886,-127.34576294
-164.78024265,-19.83892403,18.95929674,-14.62092798,0.71929589,-0.67400972
3.13432267

>  <Name>
F6368-0502

>  <RI>
1.15531e+07

>  <Rbt.Current_Directory>
/home/adria/Escritorio/rDock_CMTR_LC/2pxcA_model/inputs_sah

>  <Rbt.Executable>
rbdock ($Id: //depot/dev/client3/rdock/2013.1/src/exe/rbdock.cxx#4 $)

>  <Rbt.Library>
libRbt.so (2013.1, Build901 2013/11/27)

>  <Rbt.Parameter_File>
/home/adria/Escritorio/rDock_2013.1_src/data/scripts/dock.prm

>  <Rbt.Receptor>
sah_rdock.prm

>  <SCORE>
-300.122

>  <SCORE.INTER>
-9.90192

>  <SCORE.INTER.CONST>
1

>  <SCORE.INTER.POLAR>
-0.701608

>  <SCORE.INTER.REPUL>
0.13978

>  <SCORE.INTER.ROT>
7

>  <SCORE.INTER.VDW>
-20.6154

>  <SCORE.INTER.norm>
-0.330064

>  <SCORE.INTRA>
-283.86

>  <SCORE.INTRA.DIHEDRAL>
-6.55152

>  <SCORE.INTRA.DIHEDRAL.0>
13.9833

>  <SCORE.INTRA.POLAR>
0

>  <SCORE.INTRA.POLAR.0>
0

>  <SCORE.INTRA.REPUL>
0

>  <SCORE.INTRA.REPUL.0>
0

>  <SCORE.INTRA.VDW>
-280.584

>  <SCORE.INTRA.VDW.0>
277.803

>  <SCORE.INTRA.norm>
-9.46201

>  <SCORE.RESTR>
0

>  <SCORE.RESTR.CAVITY>
0

>  <SCORE.RESTR.norm>
0

>  <SCORE.SYSTEM>
-6.36

>  <SCORE.SYSTEM.CONST>
0

>  <SCORE.SYSTEM.DIHEDRAL>
9.39888

>  <SCORE.SYSTEM.POLAR>
-4.23822

>  <SCORE.SYSTEM.VDW>
3.3505

>  <SCORE.SYSTEM.norm>
-0.212

>  <SCORE.heavy>
30

>  <SCORE.norm>
-10.0041

$$$$
F6368-0502
  rDOCK(R)          3D
libRbt.so/2013.1/901 2013/11/27
 30 33  0  0  0  0  0  0  0  0999 V2000
  -15.4153   18.0308  -16.8438 C   0  0  0  0  0  0
  -16.7662   18.5932  -16.6015 C   0  0  0  0  0  0
  -17.3426   18.4850  -15.3259 C   0  0  0  0  0  0
  -18.5831   19.0661  -15.1662 C   0  0  0  0  0  0
  -19.4920   18.7483  -13.6635 C   0  0  0  0  0  0
  -21.7621   17.9262  -13.4289 S   0  0  0  0  0  0
  -22.7840   18.2595  -14.4862 O   0  0  0  0  0  0
  -22.0589   16.4652  -13.1749 O   0  0  0  0  0  0
  -22.6269   18.7602  -12.0222 N   0  0  0  0  0  0
  -23.8091   17.9533  -11.7786 C   0  0  0  0  0  0
  -24.5373   18.4951  -10.6160 C   0  0  0  0  0  0
  -24.2390   19.8912  -10.2307 N   0  0  0  0  0  0
  -24.2818   20.8854  -11.3704 C   0  0  0  0  0  0
  -24.4374   22.5169  -11.3641 C   0  0  0  0  0  0
  -24.1971   23.4117  -12.5524 N   0  0  0  0  0  0
  -25.0881   23.3133  -13.6062 C   0  0  0  0  0  0
  -24.5769   24.0767  -14.6170 C   0  0  0  0  0  0
  -23.5010   24.8193  -14.2109 N   0  0  0  0  0  0
  -23.2644   24.5235  -12.9405 C   0  0  0  0  0  0
  -21.9620   25.2507  -12.1881 C   0  0  0  0  0  0
  -21.8116   26.2366  -10.5665 C   0  0  0  0  0  0
  -20.6806   26.0663   -9.2628 C   0  0  0  0  0  0
  -19.4288   24.8602   -9.4335 C   0  0  0  0  0  0
  -19.4031   23.8291  -10.9343 C   0  0  0  0  0  0
  -20.6176   24.0108  -12.3720 C   0  0  0  0  0  0
  -22.9388   19.9375   -9.5978 C   0  0  0  0  0  0
  -21.9398   19.7440  -10.6694 C   0  0  0  0  0  0
  -19.1766   19.6815  -16.3530 C   0  0  0  0  0  0
  -18.6222   19.7801  -17.5912 C   0  0  0  0  0  0
  -17.3792   19.2562  -17.7000 C   0  0  0  0  0  0
  1  2  1  0  0  0
  2  3  2  0  0  0
  2 30  1  0  0  0
  3  4  1  0  0  0
  4  5  1  0  0  0
  4 28  2  0  0  0
  5  6  1  0  0  0
  6  7  2  0  0  0
  6  8  2  0  0  0
  6  9  1  0  0  0
  9 10  1  0  0  0
  9 27  1  0  0  0
 10 11  1  0  0  0
 11 12  1  0  0  0
 12 13  1  0  0  0
 12 26  1  0  0  0
 13 14  1  0  0  0
 14 15  1  0  0  0
 15 16  1  0  0  0
 15 19  1  0  0  0
 16 17  2  0  0  0
 17 18  1  0  0  0
 18 19  2  0  0  0
 19 20  1  0  0  0
 20 21  2  0  0  0
 20 25  1  0  0  0
 21 22  1  0  0  0
 22 23  2  0  0  0
 23 24  1  0  0  0
 24 25  2  0  0  0
 26 27  1  0  0  0
 28 29  1  0  0  0
 29 30  2  0  0  0
M  END
>  <CHROM.0>
177.12711967,65.41475461,90.03629879,65.28044044,-33.14530932,-176.11645631
79.68071180,-37.78021839

>  <CHROM.1>
-126.82009116,-30.67414672,-165.72564496,160.59264972,167.37652221,67.96535554
-62.21651557,-21.48476733,20.86294351,-13.02273574,-0.83690620,0.60650108
0.22685402

>  <Name>
F6368-0502

>  <RI>
1.15531e+07

>  <Rbt.Current_Directory>
/home/adria/Escritorio/rDock_CMTR_LC/2pxcA_model/inputs_sah

>  <Rbt.Executable>
rbdock ($Id: //depot/dev/client3/rdock/2013.1/src/exe/rbdock.cxx#4 $)

>  <Rbt.Library>
libRbt.so (2013.1, Build901 2013/11/27)

>  <Rbt.Parameter_File>
/home/adria/Escritorio/rDock_2013.1_src/data/scripts/dock.prm

>  <Rbt.Receptor>
sah_rdock.prm

>  <SCORE>
-292.049

>  <SCORE.INTER>
-11.4209

>  <SCORE.INTER.CONST>
1

>  <SCORE.INTER.POLAR>
-0.894427

>  <SCORE.INTER.REPUL>
0

>  <SCORE.INTER.ROT>
7

>  <SCORE.INTER.VDW>
-20.7798

>  <SCORE.INTER.norm>
-0.380695

>  <SCORE.INTRA>
-276.587

>  <SCORE.INTRA.DIHEDRAL>
4.18921

>  <SCORE.INTRA.DIHEDRAL.0>
13.9833

>  <SCORE.INTRA.POLAR>
0

>  <SCORE.INTRA.POLAR.0>
0

>  <SCORE.INTRA.REPUL>
0

>  <SCORE.INTRA.REPUL.0>
0

>  <SCORE.INTRA.VDW>
-278.682

>  <SCORE.INTRA.VDW.0>
277.803

>  <SCORE.INTRA.norm>
-9.21958

>  <SCORE.RESTR>
0

>  <SCORE.RESTR.CAVITY>
0

>  <SCORE.RESTR.norm>
0

>  <SCORE.SYSTEM>
-4.04114

>  <SCORE.SYSTEM.CONST>
0

>  <SCORE.SYSTEM.DIHEDRAL>
7.84515

>  <SCORE.SYSTEM.POLAR>
-3.30139

>  <SCORE.SYSTEM.REPUL>
0.0427102

>  <SCORE.SYSTEM.VDW>
3.04748

>  <SCORE.SYSTEM.norm>
-0.134705

>  <SCORE.heavy>
30

>  <SCORE.norm>
-9.73498

$$$$
F6368-0502
  rDOCK(R)          3D
libRbt.so/2013.1/901 2013/11/27
 30 33  0  0  0  0  0  0  0  0999 V2000
  -22.4939   23.7960  -11.8031 C   0  0  0  0  0  0
  -22.6751   22.5628  -10.9993 C   0  0  0  0  0  0
  -21.9583   21.4041  -11.3378 C   0  0  0  0  0  0
  -22.1485   20.3092  -10.5213 C   0  0  0  0  0  0
  -21.4838   18.7332  -11.0311 C   0  0  0  0  0  0
  -21.0706   17.9379  -13.2852 S   0  0  0  0  0  0
  -20.0524   16.8493  -13.5120 O   0  0  0  0  0  0
  -22.1954   17.4899  -14.1914 O   0  0  0  0  0  0
  -20.2304   19.2349  -14.3020 N   0  0  0  0  0  0
  -20.3661   18.7805  -15.6743 C   0  0  0  0  0  0
  -19.7887   19.7905  -16.5809 C   0  0  0  0  0  0
  -18.8465   20.7628  -15.9865 N   0  0  0  0  0  0
  -17.7523   20.1485  -15.1412 C   0  0  0  0  0  0
  -16.6726   18.9634  -15.4817 C   0  0  0  0  0  0
  -15.6323   19.0299  -16.5698 N   0  0  0  0  0  0
  -14.7979   20.1335  -16.5779 C   0  0  0  0  0  0
  -14.0710   20.0599  -17.7319 C   0  0  0  0  0  0
  -14.2502   18.8679  -18.3809 N   0  0  0  0  0  0
  -15.1282   18.1590  -17.6851 C   0  0  0  0  0  0
  -15.5824   16.6632  -18.2748 C   0  0  0  0  0  0
  -14.6164   15.3087  -19.2000 C   0  0  0  0  0  0
  -14.5259   13.6036  -18.8961 C   0  0  0  0  0  0
  -15.4933   12.9646  -17.5898 C   0  0  0  0  0  0
  -16.5010   14.1147  -16.6009 C   0  0  0  0  0  0
  -16.6243   15.9731  -16.9269 C   0  0  0  0  0  0
  -19.5916   21.7163  -15.1936 C   0  0  0  0  0  0
  -20.0313   21.0025  -13.9767 C   0  0  0  0  0  0
  -23.1107   20.4639   -9.4305 C   0  0  0  0  0  0
  -23.8113   21.5838   -9.1063 C   0  0  0  0  0  0
  -23.5562   22.6591   -9.8872 C   0  0  0  0  0  0
  1  2  1  0  0  0
  2  3  2  0  0  0
  2 30  1  0  0  0
  3  4  1  0  0  0
  4  5  1  0  0  0
  4 28  2  0  0  0
  5  6  1  0  0  0
  6  7  2  0  0  0
  6  8  2  0  0  0
  6  9  1  0  0  0
  9 10  1  0  0  0
  9 27  1  0  0  0
 10 11  1  0  0  0
 11 12  1  0  0  0
 12 13  1  0  0  0
 12 26  1  0  0  0
 13 14  1  0  0  0
 14 15  1  0  0  0
 15 16  1  0  0  0
 15 19  1  0  0  0
 16 17  2  0  0  0
 17 18  1  0  0  0
 18 19  2  0  0  0
 19 20  1  0  0  0
 20 21  2  0  0  0
 20 25  1  0  0  0
 21 22  1  0  0  0
 22 23  2  0  0  0
 23 24  1  0  0  0
 24 25  2  0  0  0
 26 27  1  0  0  0
 28 29  1  0  0  0
 29 30  2  0  0  0
M  END
>  <CHROM.0>
-63.29150137,66.79620404,74.23109277,-62.79567774,-29.88900582,179.73195180
-36.11991498,-161.57076388

>  <CHROM.1>
-27.63794718,156.59452166,-165.32331671,53.07991542,61.40517939,52.96819032
-153.60457575,-18.97885967,18.93576517,-14.65628913,-2.63614536,-0.70885835
-3.04304261

>  <Name>
F6368-0502

>  <RI>
1.15531e+07

>  <Rbt.Current_Directory>
/home/adria/Escritorio/rDock_CMTR_LC/2pxcA_model/inputs_sah

>  <Rbt.Executable>
rbdock ($Id: //depot/dev/client3/rdock/2013.1/src/exe/rbdock.cxx#4 $)

>  <Rbt.Library>
libRbt.so (2013.1, Build901 2013/11/27)

>  <Rbt.Parameter_File>
/home/adria/Escritorio/rDock_2013.1_src/data/scripts/dock.prm

>  <Rbt.Receptor>
sah_rdock.prm

>  <SCORE>
-307.991

>  <SCORE.INTER>
-18.1483

>  <SCORE.INTER.CONST>
1

>  <SCORE.INTER.POLAR>
-0.728792

>  <SCORE.INTER.REPUL>
0

>  <SCORE.INTER.ROT>
7

>  <SCORE.INTER.VDW>
-28.0704

>  <SCORE.INTER.norm>
-0.604944

>  <SCORE.INTRA>
-282.607

>  <SCORE.INTRA.DIHEDRAL>
-6.82066

>  <SCORE.INTRA.DIHEDRAL.0>
13.9833

>  <SCORE.INTRA.POLAR>
0

>  <SCORE.INTRA.POLAR.0>
0

>  <SCORE.INTRA.REPUL>
0

>  <SCORE.INTRA.REPUL.0>
0

>  <SCORE.INTRA.VDW>
-279.196

>  <SCORE.INTRA.VDW.0>
277.803

>  <SCORE.INTRA.norm>
-9.42022

>  <SCORE.RESTR>
0

>  <SCORE.RESTR.CAVITY>
0

>  <SCORE.RESTR.norm>
0

>  <SCORE.SYSTEM>
-7.23599

>  <SCORE.SYSTEM.CONST>
0

>  <SCORE.SYSTEM.DIHEDRAL>
6.1283

>  <SCORE.SYSTEM.POLAR>
-3.79271

>  <SCORE.SYSTEM.VDW>
2.59507

>  <SCORE.SYSTEM.norm>
-0.2412

>  <SCORE.heavy>
30

>  <SCORE.norm>
-10.2664

$$$$
F6368-0502
  rDOCK(R)          3D
libRbt.so/2013.1/901 2013/11/27
 30 33  0  0  0  0  0  0  0  0999 V2000
  -14.9886   16.2093  -18.5887 C   0  0  0  0  0  0
  -16.3415   16.5111  -18.0612 C   0  0  0  0  0  0
  -16.6398   17.8112  -17.6231 C   0  0  0  0  0  0
  -17.9291   18.0256  -17.1832 C   0  0  0  0  0  0
  -18.3128   19.5675  -16.3705 C   0  0  0  0  0  0
  -19.2597   19.9045  -14.1628 S   0  0  0  0  0  0
  -18.5762   19.2992  -12.9629 O   0  0  0  0  0  0
  -19.6076   21.2826  -13.6462 O   0  0  0  0  0  0
  -20.8599   18.9942  -13.9820 N   0  0  0  0  0  0
  -21.6666   19.4283  -15.1084 C   0  0  0  0  0  0
  -22.9482   18.6983  -15.0995 C   0  0  0  0  0  0
  -23.3513   18.0692  -13.8235 N   0  0  0  0  0  0
  -23.2714   18.9781  -12.6165 C   0  0  0  0  0  0
  -23.3128   20.6124  -12.5010 C   0  0  0  0  0  0
  -24.4650   21.4798  -12.9376 N   0  0  0  0  0  0
  -25.3686   20.9270  -13.8276 C   0  0  0  0  0  0
  -26.2075   21.9371  -14.2040 C   0  0  0  0  0  0
  -26.0178   23.0710  -13.4607 N   0  0  0  0  0  0
  -25.0246   22.8360  -12.6146 C   0  0  0  0  0  0
  -24.5350   24.0743  -11.6056 C   0  0  0  0  0  0
  -23.6861   24.0727   -9.9017 C   0  0  0  0  0  0
  -22.2997   24.9564   -9.3497 C   0  0  0  0  0  0
  -21.5618   26.0788  -10.4660 C   0  0  0  0  0  0
  -22.2528   26.2290  -12.1442 C   0  0  0  0  0  0
  -23.7722   25.2859  -12.7583 C   0  0  0  0  0  0
  -22.5359   16.8953  -13.5990 C   0  0  0  0  0  0
  -21.1879   17.3799  -13.2360 C   0  0  0  0  0  0
  -18.8205   16.8659  -17.1752 C   0  0  0  0  0  0
  -18.5303   15.6042  -17.5924 C   0  0  0  0  0  0
  -17.2773   15.4405  -18.0767 C   0  0  0  0  0  0
  1  2  1  0  0  0
  2  3  2  0  0  0
  2 30  1  0  0  0
  3  4  1  0  0  0
  4  5  1  0  0  0
  4 28  2  0  0  0
  5  6  1  0  0  0
  6  7  2  0  0  0
  6  8  2  0  0  0
  6  9  1  0  0  0
  9 10  1  0  0  0
  9 27  1  0  0  0
 10 11  1  0  0  0
 11 12  1  0  0  0
 12 13  1  0  0  0
 12 26  1  0  0  0
 13 14  1  0  0  0
 14 15  1  0  0  0
 15 16  1  0  0  0
 15 19  1  0  0  0
 16 17  2  0  0  0
 17 18  1  0  0  0
 18 19  2  0  0  0
 19 20  1  0  0  0
 20 21  2  0  0  0
 20 25  1  0  0  0
 21 22  1  0  0  0
 22 23  2  0  0  0
 23 24  1  0  0  0
 24 25  2  0  0  0
 26 27  1  0  0  0
 28 29  1  0  0  0
 29 30  2  0  0  0
M  END
>  <CHROM.0>
177.55661120,-75.05785129,-165.63053370,62.83458027,-30.80640275,-56.57505311
83.62346764,-160.37372242

>  <CHROM.1>
-123.42988615,55.67265241,-53.23366539,23.49875623,61.03229437,-19.33455687
-35.53141939,-21.23201186,20.16218122,-14.15164560,-0.91274561,0.20662785
0.50351810

>  <Name>
F6368-0502

>  <RI>
1.15531e+07

>  <Rbt.Current_Directory>
/home/adria/Escritorio/rDock_CMTR_LC/2pxcA_model/inputs_sah

>  <Rbt.Executable>
rbdock ($Id: //depot/dev/client3/rdock/2013.1/src/exe/rbdock.cxx#4 $)

>  <Rbt.Library>
libRbt.so (2013.1, Build901 2013/11/27)

>  <Rbt.Parameter_File>
/home/adria/Escritorio/rDock_2013.1_src/data/scripts/dock.prm

>  <Rbt.Receptor>
sah_rdock.prm

>  <SCORE>
-299.979

>  <SCORE.INTER>
-12.0485

>  <SCORE.INTER.CONST>
1

>  <SCORE.INTER.POLAR>
-0.410089

>  <SCORE.INTER.REPUL>
0

>  <SCORE.INTER.ROT>
7

>  <SCORE.INTER.VDW>
-23.0542

>  <SCORE.INTER.norm>
-0.401617

>  <SCORE.INTRA>
-280.96

>  <SCORE.INTRA.DIHEDRAL>
-1.23175

>  <SCORE.INTRA.DIHEDRAL.0>
13.9833

>  <SCORE.INTRA.POLAR>
0

>  <SCORE.INTRA.POLAR.0>
0

>  <SCORE.INTRA.REPUL>
0

>  <SCORE.INTRA.REPUL.0>
0

>  <SCORE.INTRA.VDW>
-280.344

>  <SCORE.INTRA.VDW.0>
277.803

>  <SCORE.INTRA.norm>
-9.36533

>  <SCORE.RESTR>
0

>  <SCORE.RESTR.CAVITY>
0

>  <SCORE.RESTR.norm>
0

>  <SCORE.SYSTEM>
-6.97115

>  <SCORE.SYSTEM.CONST>
0

>  <SCORE.SYSTEM.DIHEDRAL>
6.8459

>  <SCORE.SYSTEM.POLAR>
-3.97826

>  <SCORE.SYSTEM.REPUL>
0.0420015

>  <SCORE.SYSTEM.VDW>
2.92196

>  <SCORE.SYSTEM.norm>
-0.232372

>  <SCORE.heavy>
30

>  <SCORE.norm>
-9.99931

$$$$
F6368-0502
  rDOCK(R)          3D
libRbt.so/2013.1/901 2013/11/27
 30 33  0  0  0  0  0  0  0  0999 V2000
  -18.2356   13.6842  -14.3902 C   0  0  0  0  0  0
  -18.2253   14.1633  -15.7938 C   0  0  0  0  0  0
  -17.7552   15.4547  -16.0812 C   0  0  0  0  0  0
  -17.7387   15.8152  -17.4122 C   0  0  0  0  0  0
  -17.4070   17.5170  -17.8357 C   0  0  0  0  0  0
  -17.3955   19.4520  -16.3730 S   0  0  0  0  0  0
  -16.3275   19.5758  -15.3161 O   0  0  0  0  0  0
  -17.4447   20.8626  -16.9163 O   0  0  0  0  0  0
  -18.8399   19.4180  -15.2178 N   0  0  0  0  0  0
  -20.0065   19.5387  -16.0737 C   0  0  0  0  0  0
  -21.2264   19.4467  -15.2498 C   0  0  0  0  0  0
  -21.0760   19.6994  -13.8007 N   0  0  0  0  0  0
  -20.3178   20.9618  -13.4535 C   0  0  0  0  0  0
  -20.7660   22.5364  -13.5296 C   0  0  0  0  0  0
  -22.0979   23.0777  -13.0782 N   0  0  0  0  0  0
  -22.4911   24.2984  -13.5972 C   0  0  0  0  0  0
  -23.6236   24.6580  -12.9236 C   0  0  0  0  0  0
  -24.0957   23.6477  -12.1294 N   0  0  0  0  0  0
  -23.2581   22.6259  -12.2378 C   0  0  0  0  0  0
  -23.5589   21.2565  -11.3291 C   0  0  0  0  0  0
  -22.6572   20.4904   -9.8378 C   0  0  0  0  0  0
  -23.2902   19.9336   -8.3222 C   0  0  0  0  0  0
  -25.0202   20.0086   -8.0943 C   0  0  0  0  0  0
  -26.0514   20.6983   -9.4274 C   0  0  0  0  0  0
  -25.3811   21.2955  -11.0915 C   0  0  0  0  0  0
  -20.4249   18.5612  -13.1893 C   0  0  0  0  0  0
  -19.0091   18.6077  -13.6100 C   0  0  0  0  0  0
  -18.2588   14.8338  -18.3639 C   0  0  0  0  0  0
  -18.7214   13.5853  -18.0857 C   0  0  0  0  0  0
  -18.6665   13.2377  -16.7789 C   0  0  0  0  0  0
  1  2  1  0  0  0
  2  3  2  0  0  0
  2 30  1  0  0  0
  3  4  1  0  0  0
  4  5  1  0  0  0
  4 28  2  0  0  0
  5  6  1  0  0  0
  6  7  2  0  0  0
  6  8  2  0  0  0
  6  9  1  0  0  0
  9 10  1  0  0  0
  9 27  1  0  0  0
 10 11  1  0  0  0
 11 12  1  0  0  0
 12 13  1  0  0  0
 12 26  1  0  0  0
 13 14  1  0  0  0
 14 15  1  0  0  0
 15 16  1  0  0  0
 15 19  1  0  0  0
 16 17  2  0  0  0
 17 18  1  0  0  0
 18 19  2  0  0  0
 19 20  1  0  0  0
 20 21  2  0  0  0
 20 25  1  0  0  0
 21 22  1  0  0  0
 22 23  2  0  0  0
 23 24  1  0  0  0
 24 25  2  0  0  0
 26 27  1  0  0  0
 28 29  1  0  0  0
 29 30  2  0  0  0
M  END
>  <CHROM.0>
41.08855639,61.91723072,74.48516743,61.58229294,29.97159338,62.44062479,-156.62953056
-51.59896649

>  <CHROM.1>
-13.35330789,67.63273362,-64.71847533,74.57666884,43.58183007,-159.14148391
59.92501382,-20.43061266,19.32423926,-14.12965718,0.54990298,-0.82101389
3.02829214

>  <Name>
F6368-0502

>  <RI>
1.15531e+07

>  <Rbt.Current_Directory>
/home/adria/Escritorio/rDock_CMTR_LC/2pxcA_model/inputs_sah

>  <Rbt.Executable>
rbdock ($Id: //depot/dev/client3/rdock/2013.1/src/exe/rbdock.cxx#4 $)

>  <Rbt.Library>
libRbt.so (2013.1, Build901 2013/11/27)

>  <Rbt.Parameter_File>
/home/adria/Escritorio/rDock_2013.1_src/data/scripts/dock.prm

>  <Rbt.Receptor>
sah_rdock.prm

>  <SCORE>
-283.568

>  <SCORE.INTER>
-12.2939

>  <SCORE.INTER.CONST>
1

>  <SCORE.INTER.POLAR>
-0.848528

>  <SCORE.INTER.REPUL>
0

>  <SCORE.INTER.ROT>
7

>  <SCORE.INTER.VDW>
-21.8089

>  <SCORE.INTER.norm>
-0.409796

>  <SCORE.INTRA>
-282.14

>  <SCORE.INTRA.DIHEDRAL>
-2.77647

>  <SCORE.INTRA.DIHEDRAL.0>
13.9833

>  <SCORE.INTRA.POLAR>
0

>  <SCORE.INTRA.POLAR.0>
0

>  <SCORE.INTRA.REPUL>
0

>  <SCORE.INTRA.REPUL.0>
0

>  <SCORE.INTRA.VDW>
-280.752

>  <SCORE.INTRA.VDW.0>
277.803

>  <SCORE.INTRA.norm>
-9.40466

>  <SCORE.RESTR>
0

>  <SCORE.RESTR.CAVITY>
0

>  <SCORE.RESTR.norm>
0

>  <SCORE.SYSTEM>
10.8654

>  <SCORE.SYSTEM.CONST>
0

>  <SCORE.SYSTEM.DIHEDRAL>
9.90277

>  <SCORE.SYSTEM.POLAR>
-3.12837

>  <SCORE.SYSTEM.REPUL>
0.127151

>  <SCORE.SYSTEM.VDW>
15.9147

>  <SCORE.SYSTEM.norm>
0.362179

>  <SCORE.heavy>
30

>  <SCORE.norm>
-9.45228

$$$$
F6368-0502
  rDOCK(R)          3D
libRbt.so/2013.1/901 2013/11/27
 30 33  0  0  0  0  0  0  0  0999 V2000
  -14.5720   20.3792  -16.5826 C   0  0  0  0  0  0
  -15.0409   19.0618  -17.0766 C   0  0  0  0  0  0
  -16.1293   18.4346  -16.4495 C   0  0  0  0  0  0
  -16.5332   17.2314  -16.9889 C   0  0  0  0  0  0
  -17.7290   16.2504  -16.0983 C   0  0  0  0  0  0
  -19.7154   17.0049  -14.9283 S   0  0  0  0  0  0
  -21.0305   17.0649  -15.6632 O   0  0  0  0  0  0
  -20.1380   16.4052  -13.6059 O   0  0  0  0  0  0
  -19.6065   18.8087  -14.5326 N   0  0  0  0  0  0
  -18.5151   18.9178  -13.5813 C   0  0  0  0  0  0
  -18.2944   20.3390  -13.2545 C   0  0  0  0  0  0
  -19.4034   21.2728  -13.5454 N   0  0  0  0  0  0
  -20.7547   20.8320  -13.0266 C   0  0  0  0  0  0
  -21.2200   20.3335  -11.5363 C   0  0  0  0  0  0
  -22.6269   20.4065  -11.0018 N   0  0  0  0  0  0
  -23.2573   19.2076  -10.7197 C   0  0  0  0  0  0
  -24.5545   19.5141  -10.4210 C   0  0  0  0  0  0
  -24.7538   20.8636  -10.3060 N   0  0  0  0  0  0
  -23.6014   21.4643  -10.5682 C   0  0  0  0  0  0
  -23.5582   23.1344  -10.5524 C   0  0  0  0  0  0
  -23.1939   24.3890   -9.1678 C   0  0  0  0  0  0
  -22.1272   25.7565   -9.1593 C   0  0  0  0  0  0
  -21.2733   26.1225  -10.6383 C   0  0  0  0  0  0
  -21.5127   25.0372  -12.0809 C   0  0  0  0  0  0
  -22.6825   23.5520  -12.1136 C   0  0  0  0  0  0
  -19.4797   21.4825  -14.9748 C   0  0  0  0  0  0
  -20.0270   20.2390  -15.5560 C   0  0  0  0  0  0
  -15.7522   16.7232  -18.1165 C   0  0  0  0  0  0
  -14.6930   17.3265  -18.7200 C   0  0  0  0  0  0
  -14.3603   18.5343  -18.2082 C   0  0  0  0  0  0
  1  2  1  0  0  0
  2  3  2  0  0  0
  2 30  1  0  0  0
  3  4  1  0  0  0
  4  5  1  0  0  0
  4 28  2  0  0  0
  5  6  1  0  0  0
  6  7  2  0  0  0
  6  8  2  0  0  0
  6  9  1  0  0  0
  9 10  1  0  0  0
  9 27  1  0  0  0
 10 11  1  0  0  0
 11 12  1  0  0  0
 12 13  1  0  0  0
 12 26  1  0  0  0
 13 14  1  0  0  0
 14 15  1  0  0  0
 15 16  1  0  0  0
 15 19  1  0  0  0
 16 17  2  0  0  0
 17 18  1  0  0  0
 18 19  2  0  0  0
 19 20  1  0  0  0
 20 21  2  0  0  0
 20 25  1  0  0  0
 21 22  1  0  0  0
 22 23  2  0  0  0
 23 24  1  0  0  0
 24 25  2  0  0  0
 26 27  1  0  0  0
 28 29  1  0  0  0
 29 30  2  0  0  0
M  END
>  <CHROM.0>
-64.57048914,-73.31188486,-7.73147896,61.53250244,36.10818723,-63.71689440
82.33705398,-162.53010110

>  <CHROM.1>
41.34591673,91.28205016,-65.89216692,51.08839783,156.05561880,115.77164341
-99.34745470,-19.85961315,20.00556641,-13.71745618,-0.70764035,0.60106864
0.31642574

>  <Name>
F6368-0502

>  <RI>
1.15531e+07

>  <Rbt.Current_Directory>
/home/adria/Escritorio/rDock_CMTR_LC/2pxcA_model/inputs_sah

>  <Rbt.Executable>
rbdock ($Id: //depot/dev/client3/rdock/2013.1/src/exe/rbdock.cxx#4 $)

>  <Rbt.Library>
libRbt.so (2013.1, Build901 2013/11/27)

>  <Rbt.Parameter_File>
/home/adria/Escritorio/rDock_2013.1_src/data/scripts/dock.prm

>  <Rbt.Receptor>
sah_rdock.prm

>  <SCORE>
-293.619

>  <SCORE.INTER>
-19.0407

>  <SCORE.INTER.CONST>
1

>  <SCORE.INTER.POLAR>
-0.824621

>  <SCORE.INTER.REPUL>
0

>  <SCORE.INTER.ROT>
7

>  <SCORE.INTER.VDW>
-28.637

>  <SCORE.INTER.norm>
-0.634689

>  <SCORE.INTRA>
-279.225

>  <SCORE.INTRA.DIHEDRAL>
3.5288

>  <SCORE.INTRA.DIHEDRAL.0>
13.9833

>  <SCORE.INTRA.POLAR>
0

>  <SCORE.INTRA.POLAR.0>
0

>  <SCORE.INTRA.REPUL>
0

>  <SCORE.INTRA.REPUL.0>
0

>  <SCORE.INTRA.VDW>
-280.99

>  <SCORE.INTRA.VDW.0>
277.803

>  <SCORE.INTRA.norm>
-9.30752

>  <SCORE.RESTR>
0

>  <SCORE.RESTR.CAVITY>
0

>  <SCORE.RESTR.norm>
0

>  <SCORE.SYSTEM>
4.64701

>  <SCORE.SYSTEM.CONST>
0

>  <SCORE.SYSTEM.DIHEDRAL>
8.44001

>  <SCORE.SYSTEM.POLAR>
-4.27306

>  <SCORE.SYSTEM.REPUL>
0.0390877

>  <SCORE.SYSTEM.VDW>
14.76

>  <SCORE.SYSTEM.norm>
0.1549

>  <SCORE.heavy>
30

>  <SCORE.norm>
-9.7873

$$$$
F6368-0502
  rDOCK(R)          3D
libRbt.so/2013.1/901 2013/11/27
 30 33  0  0  0  0  0  0  0  0999 V2000
  -14.7881   14.7699  -19.0233 C   0  0  0  0  0  0
  -16.2076   14.8340  -18.5986 C   0  0  0  0  0  0
  -16.5952   15.7585  -17.6156 C   0  0  0  0  0  0
  -17.9375   15.7872  -17.3010 C   0  0  0  0  0  0
  -18.4672   16.7398  -15.8878 C   0  0  0  0  0  0
  -20.5194   18.0038  -15.6146 S   0  0  0  0  0  0
  -20.8420   19.1120  -16.5847 O   0  0  0  0  0  0
  -21.8632   17.3232  -15.4792 O   0  0  0  0  0  0
  -20.4510   19.0587  -14.0965 N   0  0  0  0  0  0
  -21.0411   18.2451  -13.0487 C   0  0  0  0  0  0
  -20.9668   18.9724  -11.7676 C   0  0  0  0  0  0
  -20.7633   20.4352  -11.8392 N   0  0  0  0  0  0
  -21.6964   21.1587  -12.7854 C   0  0  0  0  0  0
  -21.8132   22.7478  -13.1689 C   0  0  0  0  0  0
  -22.0499   23.8595  -12.1796 N   0  0  0  0  0  0
  -21.7182   25.1415  -12.5804 C   0  0  0  0  0  0
  -21.8538   25.9379  -11.4791 C   0  0  0  0  0  0
  -22.4404   25.2782  -10.4328 N   0  0  0  0  0  0
  -22.6603   24.0287  -10.8175 C   0  0  0  0  0  0
  -23.3285   22.9671   -9.7140 C   0  0  0  0  0  0
  -24.2249   23.2441   -8.0576 C   0  0  0  0  0  0
  -25.7253   22.5911   -7.4828 C   0  0  0  0  0  0
  -26.5581   21.4543   -8.5146 C   0  0  0  0  0  0
  -25.8371   21.0518  -10.1378 C   0  0  0  0  0  0
  -24.1957   21.7414  -10.7743 C   0  0  0  0  0  0
  -19.3919   20.7020  -12.2153 C   0  0  0  0  0  0
  -19.2700   20.3517  -13.6457 C   0  0  0  0  0  0
  -18.7928   14.8195  -17.9878 C   0  0  0  0  0  0
  -18.4170   13.9183  -18.9348 C   0  0  0  0  0  0
  -17.1057   13.9573  -19.2671 C   0  0  0  0  0  0
  1  2  1  0  0  0
  2  3  2  0  0  0
  2 30  1  0  0  0
  3  4  1  0  0  0
  4  5  1  0  0  0
  4 28  2  0  0  0
  5  6  1  0  0  0
  6  7  2  0  0  0
  6  8  2  0  0  0
  6  9  1  0  0  0
  9 10  1  0  0  0
  9 27  1  0  0  0
 10 11  1  0  0  0
 11 12  1  0  0  0
 12 13  1  0  0  0
 12 26  1  0  0  0
 13 14  1  0  0  0
 14 15  1  0  0  0
 15 16  1  0  0  0
 15 19  1  0  0  0
 16 17  2  0  0  0
 17 18  1  0  0  0
 18 19  2  0  0  0
 19 20  1  0  0  0
 20 21  2  0  0  0
 20 25  1  0  0  0
 21 22  1  0  0  0
 22 23  2  0  0  0
 23 24  1  0  0  0
 24 25  2  0  0  0
 26 27  1  0  0  0
 28 29  1  0  0  0
 29 30  2  0  0  0
M  END
>  <CHROM.0>
-60.90358203,66.17047204,71.38406890,-56.57951226,-29.57250710,178.81649052
-158.30591819,-165.71018686

>  <CHROM.1>
144.76175387,-58.49395433,-92.59480891,-179.72616787,-57.23680319,160.58027375
-173.99621930,-20.88070614,19.69952062,-13.69577977,-0.91826226,0.66481491
0.34431727

>  <Name>
F6368-0502

>  <RI>
1.15531e+07

>  <Rbt.Current_Directory>
/home/adria/Escritorio/rDock_CMTR_LC/2pxcA_model/inputs_sah

>  <Rbt.Executable>
rbdock ($Id: //depot/dev/client3/rdock/2013.1/src/exe/rbdock.cxx#4 $)

>  <Rbt.Library>
libRbt.so (2013.1, Build901 2013/11/27)

>  <Rbt.Parameter_File>
/home/adria/Escritorio/rDock_2013.1_src/data/scripts/dock.prm

>  <Rbt.Receptor>
sah_rdock.prm

>  <SCORE>
-300.669

>  <SCORE.INTER>
-10.1379

>  <SCORE.INTER.CONST>
1

>  <SCORE.INTER.POLAR>
0

>  <SCORE.INTER.REPUL>
0.0186242

>  <SCORE.INTER.ROT>
7

>  <SCORE.INTER.VDW>
-22.631

>  <SCORE.INTER.norm>
-0.33793

>  <SCORE.INTRA>
-283.278

>  <SCORE.INTRA.DIHEDRAL>
-7.46083

>  <SCORE.INTRA.DIHEDRAL.0>
13.9833

>  <SCORE.INTRA.POLAR>
0

>  <SCORE.INTRA.POLAR.0>
0

>  <SCORE.INTRA.REPUL>
0

>  <SCORE.INTRA.REPUL.0>
0

>  <SCORE.INTRA.VDW>
-279.548

>  <SCORE.INTRA.VDW.0>
277.803

>  <SCORE.INTRA.norm>
-9.44261

>  <SCORE.RESTR>
0

>  <SCORE.RESTR.CAVITY>
0

>  <SCORE.RESTR.norm>
0

>  <SCORE.SYSTEM>
-7.25228

>  <SCORE.SYSTEM.CONST>
0

>  <SCORE.SYSTEM.DIHEDRAL>
5.57627

>  <SCORE.SYSTEM.POLAR>
-3.73605

>  <SCORE.SYSTEM.VDW>
2.66217

>  <SCORE.SYSTEM.norm>
-0.241743

>  <SCORE.heavy>
30

>  <SCORE.norm>
-10.0223

$$$$
F6368-0502
  rDOCK(R)          3D
libRbt.so/2013.1/901 2013/11/27
 30 33  0  0  0  0  0  0  0  0999 V2000
  -23.7218   25.6638  -12.8292 C   0  0  0  0  0  0
  -22.8141   24.5007  -12.6777 C   0  0  0  0  0  0
  -23.2614   23.2211  -13.0430 C   0  0  0  0  0  0
  -22.3489   22.1956  -12.9114 C   0  0  0  0  0  0
  -22.9150   20.5138  -13.1026 C   0  0  0  0  0  0
  -22.5346   19.0055  -14.9639 S   0  0  0  0  0  0
  -23.2005   17.6528  -14.9697 O   0  0  0  0  0  0
  -22.7321   19.4430  -16.3980 O   0  0  0  0  0  0
  -20.7909   18.3880  -14.9709 N   0  0  0  0  0  0
  -20.1645   19.0233  -13.8254 C   0  0  0  0  0  0
  -18.7786   18.5355  -13.6956 C   0  0  0  0  0  0
  -18.1717   17.9172  -14.8939 N   0  0  0  0  0  0
  -18.3128   18.7267  -16.1643 C   0  0  0  0  0  0
  -17.3360   19.8659  -16.8232 C   0  0  0  0  0  0
  -15.8786   19.6686  -17.1513 N   0  0  0  0  0  0
  -14.9933   20.6272  -16.6913 C   0  0  0  0  0  0
  -13.7814   20.3331  -17.2485 C   0  0  0  0  0  0
  -13.7876   19.1247  -17.8919 N   0  0  0  0  0  0
  -15.0133   18.6276  -17.8025 C   0  0  0  0  0  0
  -15.3315   17.1678  -18.5503 C   0  0  0  0  0  0
  -14.4519   15.4809  -18.4836 C   0  0  0  0  0  0
  -15.1062   13.8955  -18.2263 C   0  0  0  0  0  0
  -16.8386   13.7563  -18.0531 C   0  0  0  0  0  0
  -17.8501   15.2697  -18.1089 C   0  0  0  0  0  0
  -17.1564   17.0037  -18.4039 C   0  0  0  0  0  0
  -18.7492   16.6053  -15.0905 C   0  0  0  0  0  0
  -20.1279   16.8188  -15.5776 C   0  0  0  0  0  0
  -21.0408   22.5485  -12.3600 C   0  0  0  0  0  0
  -20.6090   23.7868  -11.9986 C   0  0  0  0  0  0
  -21.5050   24.7811  -12.1982 C   0  0  0  0  0  0
  1  2  1  0  0  0
  2  3  2  0  0  0
  2 30  1  0  0  0
  3  4  1  0  0  0
  4  5  1  0  0  0
  4 28  2  0  0  0
  5  6  1  0  0  0
  6  7  2  0  0  0
  6  8  2  0  0  0
  6  9  1  0  0  0
  9 10  1  0  0  0
  9 27  1  0  0  0
 10 11  1  0  0  0
 11 12  1  0  0  0
 12 13  1  0  0  0
 12 26  1  0  0  0
 13 14  1  0  0  0
 14 15  1  0  0  0
 15 16  1  0  0  0
 15 19  1  0  0  0
 16 17  2  0  0  0
 17 18  1  0  0  0
 18 19  2  0  0  0
 19 20  1  0  0  0
 20 21  2  0  0  0
 20 25  1  0  0  0
 21 22  1  0  0  0
 22 23  2  0  0  0
 23 24  1  0  0  0
 24 25  2  0  0  0
 26 27  1  0  0  0
 28 29  1  0  0  0
 29 30  2  0  0  0
M  END
>  <CHROM.0>
173.35085946,-75.77380612,-10.65003761,61.48923243,-30.67912979,-175.94149424
81.72090758,-164.72254260

>  <CHROM.1>
106.49940306,-175.15720180,-0.29036502,90.50816262,55.39973022,-129.92233278
-138.53967424,-19.20733994,19.31232990,-15.46597263,-2.36194806,-0.33827660
-2.79375962

>  <Name>
F6368-0502

>  <RI>
1.15531e+07

>  <Rbt.Current_Directory>
/home/adria/Escritorio/rDock_CMTR_LC/2pxcA_model/inputs_sah

>  <Rbt.Executable>
rbdock ($Id: //depot/dev/client3/rdock/2013.1/src/exe/rbdock.cxx#4 $)

>  <Rbt.Library>
libRbt.so (2013.1, Build901 2013/11/27)

>  <Rbt.Parameter_File>
/home/adria/Escritorio/rDock_2013.1_src/data/scripts/dock.prm

>  <Rbt.Receptor>
sah_rdock.prm

>  <SCORE>
-307.998

>  <SCORE.INTER>
-18.5036

>  <SCORE.INTER.CONST>
1

>  <SCORE.INTER.POLAR>
-0.89011

>  <SCORE.INTER.REPUL>
0.060211

>  <SCORE.INTER.ROT>
7

>  <SCORE.INTER.VDW>
-28.1783

>  <SCORE.INTER.norm>
-0.616788

>  <SCORE.INTRA>
-282.72

>  <SCORE.INTRA.DIHEDRAL>
-4.46463

>  <SCORE.INTRA.DIHEDRAL.0>
13.9833

>  <SCORE.INTRA.POLAR>
0

>  <SCORE.INTRA.POLAR.0>
0

>  <SCORE.INTRA.REPUL>
0

>  <SCORE.INTRA.REPUL.0>
0

>  <SCORE.INTRA.VDW>
-280.488

>  <SCORE.INTRA.VDW.0>
277.803

>  <SCORE.INTRA.norm>
-9.42401

>  <SCORE.RESTR>
0

>  <SCORE.RESTR.CAVITY>
0

>  <SCORE.RESTR.norm>
0

>  <SCORE.SYSTEM>
-6.7735

>  <SCORE.SYSTEM.CONST>
0

>  <SCORE.SYSTEM.DIHEDRAL>
9.60372

>  <SCORE.SYSTEM.POLAR>
-4.53494

>  <SCORE.SYSTEM.REPUL>
0.0431082

>  <SCORE.SYSTEM.VDW>
3.6279

>  <SCORE.SYSTEM.norm>
-0.225783

>  <SCORE.heavy>
30

>  <SCORE.norm>
-10.2666

$$$$
F6368-0502
  rDOCK(R)          3D
libRbt.so/2013.1/901 2013/11/27
 30 33  0  0  0  0  0  0  0  0999 V2000
  -21.6136   25.7588  -10.6308 C   0  0  0  0  0  0
  -21.5996   24.4112  -11.2500 C   0  0  0  0  0  0
  -22.3574   23.3778  -10.6766 C   0  0  0  0  0  0
  -22.3261   22.1639  -11.3302 C   0  0  0  0  0  0
  -23.0440   20.7396  -10.5292 C   0  0  0  0  0  0
  -22.8811   18.4096  -11.1838 S   0  0  0  0  0  0
  -21.5471   17.7109  -11.1111 O   0  0  0  0  0  0
  -23.8034   17.3550  -10.6144 O   0  0  0  0  0  0
  -23.1282   18.2146  -13.0067 N   0  0  0  0  0  0
  -23.3751   16.7971  -13.2012 C   0  0  0  0  0  0
  -23.6612   16.5437  -14.6258 C   0  0  0  0  0  0
  -23.2274   17.5777  -15.5898 N   0  0  0  0  0  0
  -21.7932   18.0318  -15.4284 C   0  0  0  0  0  0
  -20.8137   18.8690  -16.4413 C   0  0  0  0  0  0
  -19.5582   19.5917  -16.0267 N   0  0  0  0  0  0
  -19.7043   20.8734  -15.5265 C   0  0  0  0  0  0
  -18.4434   21.3795  -15.3863 C   0  0  0  0  0  0
  -17.4792   20.4285  -15.5862 N   0  0  0  0  0  0
  -18.0909   19.2953  -15.9013 C   0  0  0  0  0  0
  -17.1506   17.9600  -16.2534 C   0  0  0  0  0  0
  -17.4569   16.4372  -17.3541 C   0  0  0  0  0  0
  -16.4475   15.7240  -18.5707 C   0  0  0  0  0  0
  -14.8726   16.4334  -18.8297 C   0  0  0  0  0  0
  -14.3962   17.8927  -17.8501 C   0  0  0  0  0  0
  -15.4764   18.6742  -16.5094 C   0  0  0  0  0  0
  -24.1102   18.7191  -15.4850 C   0  0  0  0  0  0
  -23.7795   19.3941  -14.2127 C   0  0  0  0  0  0
  -21.4696   22.0778  -12.5128 C   0  0  0  0  0  0
  -20.7291   23.0763  -13.0648 C   0  0  0  0  0  0
  -20.8297   24.2711  -12.4374 C   0  0  0  0  0  0
  1  2  1  0  0  0
  2  3  2  0  0  0
  2 30  1  0  0  0
  3  4  1  0  0  0
  4  5  1  0  0  0
  4 28  2  0  0  0
  5  6  1  0  0  0
  6  7  2  0  0  0
  6  8  2  0  0  0
  6  9  1  0  0  0
  9 10  1  0  0  0
  9 27  1  0  0  0
 10 11  1  0  0  0
 11 12  1  0  0  0
 12 13  1  0  0  0
 12 26  1  0  0  0
 13 14  1  0  0  0
 14 15  1  0  0  0
 15 16  1  0  0  0
 15 19  1  0  0  0
 16 17  2  0  0  0
 17 18  1  0  0  0
 18 19  2  0  0  0
 19 20  1  0  0  0
 20 21  2  0  0  0
 20 25  1  0  0  0
 21 22  1  0  0  0
 22 23  2  0  0  0
 23 24  1  0  0  0
 24 25  2  0  0  0
 26 27  1  0  0  0
 28 29  1  0  0  0
 29 30  2  0  0  0
M  END
>  <CHROM.0>
-64.71065279,68.13915388,74.28719677,62.08759728,-29.85001074,64.74478641
80.03415688,-162.94745255

>  <CHROM.1>
-169.56359742,66.90801509,-164.71433160,164.37130069,161.62894124,-84.13873290
18.16948059,-20.69820972,19.51445870,-14.04955819,-2.44764605,-0.56428550
-2.69699401

>  <Name>
F6368-0502

>  <RI>
1.15531e+07

>  <Rbt.Current_Directory>
/home/adria/Escritorio/rDock_CMTR_LC/2pxcA_model/inputs_sah

>  <Rbt.Executable>
rbdock ($Id: //depot/dev/client3/rdock/2013.1/src/exe/rbdock.cxx#4 $)

>  <Rbt.Library>
libRbt.so (2013.1, Build901 2013/11/27)

>  <Rbt.Parameter_File>
/home/adria/Escritorio/rDock_2013.1_src/data/scripts/dock.prm

>  <Rbt.Receptor>
sah_rdock.prm

>  <SCORE>
-300.984

>  <SCORE.INTER>
-11.8278

>  <SCORE.INTER.CONST>
1

>  <SCORE.INTER.POLAR>
-0.28235

>  <SCORE.INTER.REPUL>
0

>  <SCORE.INTER.ROT>
7

>  <SCORE.INTER.VDW>
-23.2678

>  <SCORE.INTER.norm>
-0.394259

>  <SCORE.INTRA>
-281.977

>  <SCORE.INTRA.DIHEDRAL>
-5.61228

>  <SCORE.INTRA.DIHEDRAL.0>
13.9833

>  <SCORE.INTRA.POLAR>
0

>  <SCORE.INTRA.POLAR.0>
0

>  <SCORE.INTRA.REPUL>
0

>  <SCORE.INTRA.REPUL.0>
0

>  <SCORE.INTRA.VDW>
-279.171

>  <SCORE.INTRA.VDW.0>
277.803

>  <SCORE.INTRA.norm>
-9.39923

>  <SCORE.RESTR>
0

>  <SCORE.RESTR.CAVITY>
0

>  <SCORE.RESTR.norm>
0

>  <SCORE.SYSTEM>
-7.17898

>  <SCORE.SYSTEM.CONST>
0

>  <SCORE.SYSTEM.DIHEDRAL>
5.93245

>  <SCORE.SYSTEM.POLAR>
-3.65976

>  <SCORE.SYSTEM.VDW>
2.29796

>  <SCORE.SYSTEM.norm>
-0.239299

>  <SCORE.heavy>
30

>  <SCORE.norm>
-10.0328

$$$$
F6368-0502
  rDOCK(R)          3D
libRbt.so/2013.1/901 2013/11/27
 30 33  0  0  0  0  0  0  0  0999 V2000
  -16.0763   12.5879  -16.2530 C   0  0  0  0  0  0
  -15.5780   13.6313  -17.1819 C   0  0  0  0  0  0
  -15.3174   14.9228  -16.6968 C   0  0  0  0  0  0
  -14.8190   15.8279  -17.6101 C   0  0  0  0  0  0
  -14.7103   17.5469  -17.1424 C   0  0  0  0  0  0
  -16.5207   19.1197  -16.7781 S   0  0  0  0  0  0
  -16.3355   20.2485  -15.7959 O   0  0  0  0  0  0
  -17.2032   19.8298  -17.9258 O   0  0  0  0  0  0
  -17.9387   18.3085  -15.9101 N   0  0  0  0  0  0
  -17.8228   16.8994  -16.2403 C   0  0  0  0  0  0
  -18.8730   16.1451  -15.5307 C   0  0  0  0  0  0
  -20.0333   16.9169  -15.0363 N   0  0  0  0  0  0
  -20.6652   17.8353  -16.0594 C   0  0  0  0  0  0
  -21.7410   19.0588  -15.8817 C   0  0  0  0  0  0
  -23.0417   18.9619  -15.1271 N   0  0  0  0  0  0
  -23.8861   17.9169  -15.4574 C   0  0  0  0  0  0
  -25.0521   18.1333  -14.7798 C   0  0  0  0  0  0
  -24.9438   19.1575  -13.8780 N   0  0  0  0  0  0
  -23.7193   19.6553  -13.9796 C   0  0  0  0  0  0
  -23.3156   20.9646  -13.0235 C   0  0  0  0  0  0
  -21.8232   22.1463  -13.0410 C   0  0  0  0  0  0
  -21.7772   23.8794  -12.9967 C   0  0  0  0  0  0
  -23.2998   24.7234  -12.8560 C   0  0  0  0  0  0
  -24.8396   23.7523  -12.8065 C   0  0  0  0  0  0
  -24.9084   21.8630  -12.8379 C   0  0  0  0  0  0
  -19.6286   17.6873  -13.8805 C   0  0  0  0  0  0
  -18.7787   18.7872  -14.3819 C   0  0  0  0  0  0
  -14.6679   15.3554  -18.9861 C   0  0  0  0  0  0
  -14.9273   14.1065  -19.4586 C   0  0  0  0  0  0
  -15.3552   13.2242  -18.5260 C   0  0  0  0  0  0
  1  2  1  0  0  0
  2  3  2  0  0  0
  2 30  1  0  0  0
  3  4  1  0  0  0
  4  5  1  0  0  0
  4 28  2  0  0  0
  5  6  1  0  0  0
  6  7  2  0  0  0
  6  8  2  0  0  0
  6  9  1  0  0  0
  9 10  1  0  0  0
  9 27  1  0  0  0
 10 11  1  0  0  0
 11 12  1  0  0  0
 12 13  1  0  0  0
 12 26  1  0  0  0
 13 14  1  0  0  0
 14 15  1  0  0  0
 15 16  1  0  0  0
 15 19  1  0  0  0
 16 17  2  0  0  0
 17 18  1  0  0  0
 18 19  2  0  0  0
 19 20  1  0  0  0
 20 21  2  0  0  0
 20 25  1  0  0  0
 21 22  1  0  0  0
 22 23  2  0  0  0
 23 24  1  0  0  0
 24 25  2  0  0  0
 26 27  1  0  0  0
 28 29  1  0  0  0
 29 30  2  0  0  0
M  END
>  <CHROM.0>
-179.10304207,-76.18096192,-46.96462487,150.71396863,-30.62755948,-59.97450603
-156.10510744,-164.06403942

>  <CHROM.1>
-69.54909470,150.44391106,-25.34219315,-166.23795777,-50.80950958,-51.88445573
1.80641157,-19.40117107,18.33790200,-15.60967126,0.67677267,-0.30570916,-2.92066605

>  <Name>
F6368-0502

>  <RI>
1.15531e+07

>  <Rbt.Current_Directory>
/home/adria/Escritorio/rDock_CMTR_LC/2pxcA_model/inputs_sah

>  <Rbt.Executable>
rbdock ($Id: //depot/dev/client3/rdock/2013.1/src/exe/rbdock.cxx#4 $)

>  <Rbt.Library>
libRbt.so (2013.1, Build901 2013/11/27)

>  <Rbt.Parameter_File>
/home/adria/Escritorio/rDock_2013.1_src/data/scripts/dock.prm

>  <Rbt.Receptor>
sah_rdock.prm

>  <SCORE>
-301.016

>  <SCORE.INTER>
-14.3281

>  <SCORE.INTER.CONST>
1

>  <SCORE.INTER.POLAR>
-0.818765

>  <SCORE.INTER.REPUL>
0.000567398

>  <SCORE.INTER.ROT>
7

>  <SCORE.INTER.VDW>
-23.9472

>  <SCORE.INTER.norm>
-0.477604

>  <SCORE.INTRA>
-282.545

>  <SCORE.INTRA.DIHEDRAL>
-4.60778

>  <SCORE.INTRA.DIHEDRAL.0>
13.9833

>  <SCORE.INTRA.POLAR>
0

>  <SCORE.INTRA.POLAR.0>
0

>  <SCORE.INTRA.REPUL>
0

>  <SCORE.INTRA.REPUL.0>
0

>  <SCORE.INTRA.VDW>
-280.241

>  <SCORE.INTRA.VDW.0>
277.803

>  <SCORE.INTRA.norm>
-9.41817

>  <SCORE.RESTR>
0

>  <SCORE.RESTR.CAVITY>
0

>  <SCORE.RESTR.norm>
0

>  <SCORE.SYSTEM>
-4.14271

>  <SCORE.SYSTEM.CONST>
0

>  <SCORE.SYSTEM.DIHEDRAL>
10.1672

>  <SCORE.SYSTEM.POLAR>
-4.10945

>  <SCORE.SYSTEM.REPUL>
0.0437144

>  <SCORE.SYSTEM.VDW>
4.52728

>  <SCORE.SYSTEM.norm>
-0.13809

>  <SCORE.heavy>
30

>  <SCORE.norm>
-10.0339

$$$$
F6368-0502
  rDOCK(R)          3D
libRbt.so/2013.1/901 2013/11/27
 30 33  0  0  0  0  0  0  0  0999 V2000
  -25.3612   23.1937   -8.0623 C   0  0  0  0  0  0
  -25.1859   23.4537   -9.5119 C   0  0  0  0  0  0
  -23.9869   23.0837  -10.1417 C   0  0  0  0  0  0
  -23.9124   23.3207  -11.4982 C   0  0  0  0  0  0
  -22.3394   23.1243  -12.3182 C   0  0  0  0  0  0
  -20.7941   21.2602  -12.1720 S   0  0  0  0  0  0
  -19.4572   21.4565  -11.5030 O   0  0  0  0  0  0
  -21.2138   19.9182  -11.6152 O   0  0  0  0  0  0
  -20.1363   20.8122  -13.8419 N   0  0  0  0  0  0
  -21.0966   19.8658  -14.3806 C   0  0  0  0  0  0
  -20.7008   19.4987  -15.7532 C   0  0  0  0  0  0
  -19.2954   19.7539  -16.1355 N   0  0  0  0  0  0
  -18.2681   19.2388  -15.1512 C   0  0  0  0  0  0
  -16.9503   18.2905  -15.3754 C   0  0  0  0  0  0
  -15.8840   18.5257  -16.4138 N   0  0  0  0  0  0
  -15.0420   19.6062  -16.2196 C   0  0  0  0  0  0
  -14.2885   19.7175  -17.3534 C   0  0  0  0  0  0
  -14.4604   18.6519  -18.1954 N   0  0  0  0  0  0
  -15.3596   17.8468  -17.6470 C   0  0  0  0  0  0
  -15.8101   16.4748  -18.4872 C   0  0  0  0  0  0
  -14.7975   15.1516  -19.4079 C   0  0  0  0  0  0
  -14.8808   13.4219  -19.3121 C   0  0  0  0  0  0
  -16.1008   12.7297  -18.2714 C   0  0  0  0  0  0
  -17.1798   13.8471  -17.3210 C   0  0  0  0  0  0
  -17.1140   15.7339  -17.4244 C   0  0  0  0  0  0
  -19.1103   21.1759  -16.3270 C   0  0  0  0  0  0
  -19.1302   21.7897  -14.9829 C   0  0  0  0  0  0
  -25.0668   23.9748  -12.1139 C   0  0  0  0  0  0
  -26.2259   24.3404  -11.5032 C   0  0  0  0  0  0
  -26.2934   24.0380  -10.1858 C   0  0  0  0  0  0
  1  2  1  0  0  0
  2  3  2  0  0  0
  2 30  1  0  0  0
  3  4  1  0  0  0
  4  5  1  0  0  0
  4 28  2  0  0  0
  5  6  1  0  0  0
  6  7  2  0  0  0
  6  8  2  0  0  0
  6  9  1  0  0  0
  9 10  1  0  0  0
  9 27  1  0  0  0
 10 11  1  0  0  0
 11 12  1  0  0  0
 12 13  1  0  0  0
 12 26  1  0  0  0
 13 14  1  0  0  0
 14 15  1  0  0  0
 15 16  1  0  0  0
 15 19  1  0  0  0
 16 17  2  0  0  0
 17 18  1  0  0  0
 18 19  2  0  0  0
 19 20  1  0  0  0
 20 21  2  0  0  0
 20 25  1  0  0  0
 21 22  1  0  0  0
 22 23  2  0  0  0
 23 24  1  0  0  0
 24 25  2  0  0  0
 26 27  1  0  0  0
 28 29  1  0  0  0
 29 30  2  0  0  0
M  END
>  <CHROM.0>
179.63491652,-171.03205840,72.66435863,62.01425123,-30.73465906,174.02866893
79.57958695,-162.18105721

>  <CHROM.1>
48.77827768,-112.26621792,-87.76470446,128.32529088,50.35440228,70.55502246
-143.95799997,-19.58924595,19.87502086,-14.45890338,2.42824122,0.52989957
0.27671939

>  <Name>
F6368-0502

>  <RI>
1.15531e+07

>  <Rbt.Current_Directory>
/home/adria/Escritorio/rDock_CMTR_LC/2pxcA_model/inputs_sah

>  <Rbt.Executable>
rbdock ($Id: //depot/dev/client3/rdock/2013.1/src/exe/rbdock.cxx#4 $)

>  <Rbt.Library>
libRbt.so (2013.1, Build901 2013/11/27)

>  <Rbt.Parameter_File>
/home/adria/Escritorio/rDock_2013.1_src/data/scripts/dock.prm

>  <Rbt.Receptor>
sah_rdock.prm

>  <SCORE>
-296.442

>  <SCORE.INTER>
-9.96087

>  <SCORE.INTER.CONST>
1

>  <SCORE.INTER.POLAR>
0

>  <SCORE.INTER.REPUL>
0.464348

>  <SCORE.INTER.ROT>
7

>  <SCORE.INTER.VDW>
-24.6826

>  <SCORE.INTER.norm>
-0.332029

>  <SCORE.INTRA>
-280.519

>  <SCORE.INTRA.DIHEDRAL>
-1.74578

>  <SCORE.INTRA.DIHEDRAL.0>
13.9833

>  <SCORE.INTRA.POLAR>
0

>  <SCORE.INTRA.POLAR.0>
0

>  <SCORE.INTRA.REPUL>
0

>  <SCORE.INTRA.REPUL.0>
0

>  <SCORE.INTRA.VDW>
-279.646

>  <SCORE.INTRA.VDW.0>
277.803

>  <SCORE.INTRA.norm>
-9.35064

>  <SCORE.RESTR>
0

>  <SCORE.RESTR.CAVITY>
0

>  <SCORE.RESTR.norm>
0

>  <SCORE.SYSTEM>
-5.96163

>  <SCORE.SYSTEM.CONST>
0

>  <SCORE.SYSTEM.DIHEDRAL>
5.65583

>  <SCORE.SYSTEM.POLAR>
-3.60047

>  <SCORE.SYSTEM.VDW>
3.45207

>  <SCORE.SYSTEM.norm>
-0.198721

>  <SCORE.heavy>
30

>  <SCORE.norm>
-9.88139

$$$$
