F3406-4716
  rDOCK(R)          3D
libRbt.so/2013.1/901 2013/11/27
 33 36  0  0  0  0  0  0  0  0999 V2000
  -25.0518   18.3930  -13.1892 C   0  0  0  0  0  0
  -25.4325   19.2625  -11.6920 C   0  0  0  0  0  0
  -27.0929   19.2325  -11.7835 C   0  0  0  0  0  0
  -23.9247   20.0099  -10.1490 C   0  0  0  0  0  0
  -22.0118   19.9116  -10.3641 C   0  0  0  0  0  0
  -21.1013   18.8500  -10.8658 N   0  0  0  0  0  0
  -20.8974   18.5059  -12.2154 C   0  0  0  0  0  0
  -20.2023   17.4937  -12.4193 O   0  0  0  0  0  0
  -21.5581   19.2235  -13.5417 C   0  0  0  0  0  0
  -20.8230   20.5234  -13.8747 C   0  0  0  0  0  0
  -20.2031   20.6164  -15.2825 C   0  0  0  0  0  0
  -19.9085   19.2890  -15.8775 N   0  0  0  0  0  0
  -21.1988   18.6542  -16.1545 C   0  0  0  0  0  0
  -22.1250   18.6339  -14.8714 C   0  0  0  0  0  0
  -18.5867   18.9629  -16.3380 C   0  0  0  0  0  0
  -17.6903   19.9464  -16.2345 N   0  0  0  0  0  0
  -16.3460   19.7055  -16.5777 C   0  0  0  0  0  0
  -15.9429   18.4868  -17.0162 C   0  0  0  0  0  0
  -14.2591   18.3977  -17.2769 S   0  0  0  0  0  0
  -14.0332   20.0177  -16.7475 C   0  0  0  0  0  0
  -15.2481   20.6241  -16.4573 C   0  0  0  0  0  0
  -16.8551   17.3967  -17.2146 C   0  0  0  0  0  0
  -16.4932   16.3238  -17.6987 O   0  0  0  0  0  0
  -18.2125   17.6650  -16.8430 N   0  3  0  0  0  0
  -19.1753   16.5775  -17.2760 C   0  0  0  0  0  0
  -18.8281   15.0110  -17.0129 C   0  0  0  0  0  0
  -17.9992   14.5104  -15.5241 C   0  0  0  0  0  0
  -16.7579   13.0982  -15.4247 C   0  0  0  0  0  0
  -16.5044   12.1812  -16.9923 C   0  0  0  0  0  0
  -16.0252   10.9370  -16.9984 F   0  0  0  0  0  0
  -17.4509   12.7344  -18.4401 C   0  0  0  0  0  0
  -18.5972   14.0643  -18.3915 C   0  0  0  0  0  0
  -20.6023   18.2475  -10.2109 H   0  0  0  0  0  0
  1  2  1  0  0  0
  2  3  1  0  0  0
  2  4  1  0  0  0
  4  5  1  0  0  0
  5  6  1  0  0  0
  6  7  1  0  0  0
  6 33  1  0  0  0
  7  8  2  0  0  0
  7  9  1  0  0  0
  9 10  1  0  0  0
  9 14  1  0  0  0
 10 11  1  0  0  0
 11 12  1  0  0  0
 12 13  1  0  0  0
 12 15  1  0  0  0
 13 14  1  0  0  0
 15 16  2  0  0  0
 15 24  1  0  0  0
 16 17  1  0  0  0
 17 18  2  0  0  0
 17 21  1  0  0  0
 18 19  1  0  0  0
 18 22  1  0  0  0
 19 20  1  0  0  0
 20 21  2  0  0  0
 22 23  2  0  0  0
 22 24  1  0  0  0
 24 25  1  0  0  0
 25 26  1  0  0  0
 26 27  2  0  0  0
 26 32  1  0  0  0
 27 28  1  0  0  0
 28 29  2  0  0  0
 29 30  1  0  0  0
 29 31  1  0  0  0
 31 32  2  0  0  0
M  END
>  <CHROM.0>
-61.40332401,-167.55889768,-44.32074053,-62.18075129,168.05866155,-62.86015029
-157.33900975,-159.56415473

>  <CHROM.1>
5.39375234,-43.00707505,76.56902909,78.83820518,-2.44474454,-144.45981029
37.06239996,-19.12249300,17.65128179,-15.24706750,2.64272502,0.52312514,0.20315960

>  <Name>
F3406-4716

>  <RI>
1.61324e+07

>  <Rbt.Current_Directory>
/home/adria/Escritorio/rDock_CMTR_LC/2pxcA_model/inputs_sah

>  <Rbt.Executable>
rbdock ($Id: //depot/dev/client3/rdock/2013.1/src/exe/rbdock.cxx#4 $)

>  <Rbt.Library>
libRbt.so (2013.1, Build901 2013/11/27)

>  <Rbt.Parameter_File>
/home/adria/Escritorio/rDock_2013.1_src/data/scripts/dock.prm

>  <Rbt.Receptor>
sah_rdock.prm

>  <SCORE>
-242.188

>  <SCORE.INTER>
-11.8628

>  <SCORE.INTER.CONST>
1

>  <SCORE.INTER.POLAR>
-0.759358

>  <SCORE.INTER.REPUL>
0

>  <SCORE.INTER.ROT>
7

>  <SCORE.INTER.VDW>
-21.6809

>  <SCORE.INTER.norm>
-0.370711

>  <SCORE.INTRA>
-228.953

>  <SCORE.INTRA.DIHEDRAL>
-1.02508

>  <SCORE.INTRA.DIHEDRAL.0>
14.6111

>  <SCORE.INTRA.POLAR>
0

>  <SCORE.INTRA.POLAR.0>
0

>  <SCORE.INTRA.REPUL>
0

>  <SCORE.INTRA.REPUL.0>
0

>  <SCORE.INTRA.VDW>
-228.441

>  <SCORE.INTRA.VDW.0>
225.973

>  <SCORE.INTRA.norm>
-7.15479

>  <SCORE.RESTR>
0

>  <SCORE.RESTR.CAVITY>
0

>  <SCORE.RESTR.norm>
0

>  <SCORE.SYSTEM>
-1.37159

>  <SCORE.SYSTEM.CONST>
0

>  <SCORE.SYSTEM.DIHEDRAL>
3.75537

>  <SCORE.SYSTEM.POLAR>
-3.65489

>  <SCORE.SYSTEM.VDW>
9.17734

>  <SCORE.SYSTEM.norm>
-0.0428622

>  <SCORE.heavy>
32

>  <SCORE.norm>
-7.56837

$$$$
F3406-4716
  rDOCK(R)          3D
libRbt.so/2013.1/901 2013/11/27
 33 36  0  0  0  0  0  0  0  0999 V2000
  -17.7967   16.4240  -17.2368 C   0  0  0  0  0  0
  -16.7417   17.7868  -16.8220 C   0  0  0  0  0  0
  -15.4997   17.4942  -17.8887 C   0  0  0  0  0  0
  -17.2055   19.4376  -15.3144 C   0  0  0  0  0  0
  -18.6492   19.3692  -14.0392 C   0  0  0  0  0  0
  -19.0922   20.2883  -12.9591 N   0  0  0  0  0  0
  -20.2009   20.0961  -12.1133 C   0  0  0  0  0  0
  -20.4878   21.0507  -11.3678 O   0  0  0  0  0  0
  -21.2181   18.8021  -12.0756 C   0  0  0  0  0  0
  -22.5186   19.1587  -11.3527 C   0  0  0  0  0  0
  -23.8196   18.9799  -12.1590 C   0  0  0  0  0  0
  -23.6088   19.0482  -13.6266 N   0  0  0  0  0  0
  -22.8520   17.8516  -14.0009 C   0  0  0  0  0  0
  -21.5385   17.6979  -13.1316 C   0  0  0  0  0  0
  -24.3410   19.9838  -14.4353 C   0  0  0  0  0  0
  -24.2921   19.7585  -15.7499 N   0  0  0  0  0  0
  -25.0442   20.5652  -16.6255 C   0  0  0  0  0  0
  -25.8199   21.5741  -16.1559 C   0  0  0  0  0  0
  -26.7152   22.3508  -17.3832 S   0  0  0  0  0  0
  -26.0968   21.2892  -18.5858 C   0  0  0  0  0  0
  -25.1615   20.4145  -18.0493 C   0  0  0  0  0  0
  -25.8780   21.9202  -14.7642 C   0  0  0  0  0  0
  -26.5143   22.8942  -14.3609 O   0  0  0  0  0  0
  -25.1156   21.0737  -13.8953 N   0  3  0  0  0  0
  -25.0215   21.6038  -12.4785 C   0  0  0  0  0  0
  -24.5043   23.1187  -12.1935 C   0  0  0  0  0  0
  -23.1151   23.7776  -13.0822 C   0  0  0  0  0  0
  -21.8576   24.9726  -12.3502 C   0  0  0  0  0  0
  -22.2062   25.5021  -10.6296 C   0  0  0  0  0  0
  -21.6968   26.6303  -10.1344 F   0  0  0  0  0  0
  -23.6892   24.8186   -9.8350 C   0  0  0  0  0  0
  -24.7951   23.7187  -10.6425 C   0  0  0  0  0  0
  -18.6204   21.1817  -12.8172 H   0  0  0  0  0  0
  1  2  1  0  0  0
  2  3  1  0  0  0
  2  4  1  0  0  0
  4  5  1  0  0  0
  5  6  1  0  0  0
  6  7  1  0  0  0
  6 33  1  0  0  0
  7  8  2  0  0  0
  7  9  1  0  0  0
  9 10  1  0  0  0
  9 14  1  0  0  0
 10 11  1  0  0  0
 11 12  1  0  0  0
 12 13  1  0  0  0
 12 15  1  0  0  0
 13 14  1  0  0  0
 15 16  2  0  0  0
 15 24  1  0  0  0
 16 17  1  0  0  0
 17 18  2  0  0  0
 17 21  1  0  0  0
 18 19  1  0  0  0
 18 22  1  0  0  0
 19 20  1  0  0  0
 20 21  2  0  0  0
 22 23  2  0  0  0
 22 24  1  0  0  0
 24 25  1  0  0  0
 25 26  1  0  0  0
 26 27  2  0  0  0
 26 32  1  0  0  0
 27 28  1  0  0  0
 28 29  2  0  0  0
 29 30  1  0  0  0
 29 31  1  0  0  0
 31 32  2  0  0  0
M  END
>  <CHROM.0>
-59.08470624,-69.21359322,110.15465185,64.58754451,-30.08285682,-176.68587337
82.04788643,-162.14532880

>  <CHROM.1>
12.99720170,177.48678161,178.98473019,-162.09884032,-165.82873127,115.62546303
-42.40915748,-22.67468760,20.98533705,-14.02216573,0.59194836,0.38951525
-2.22980400

>  <Name>
F3406-4716

>  <RI>
1.61324e+07

>  <Rbt.Current_Directory>
/home/adria/Escritorio/rDock_CMTR_LC/2pxcA_model/inputs_sah

>  <Rbt.Executable>
rbdock ($Id: //depot/dev/client3/rdock/2013.1/src/exe/rbdock.cxx#4 $)

>  <Rbt.Library>
libRbt.so (2013.1, Build901 2013/11/27)

>  <Rbt.Parameter_File>
/home/adria/Escritorio/rDock_2013.1_src/data/scripts/dock.prm

>  <Rbt.Receptor>
sah_rdock.prm

>  <SCORE>
-252.076

>  <SCORE.INTER>
-16.4023

>  <SCORE.INTER.CONST>
1

>  <SCORE.INTER.POLAR>
-1.32477

>  <SCORE.INTER.REPUL>
0

>  <SCORE.INTER.ROT>
7

>  <SCORE.INTER.VDW>
-24.2981

>  <SCORE.INTER.norm>
-0.512571

>  <SCORE.INTRA>
-228.637

>  <SCORE.INTRA.DIHEDRAL>
-3.94284

>  <SCORE.INTRA.DIHEDRAL.0>
14.6111

>  <SCORE.INTRA.POLAR>
0

>  <SCORE.INTRA.POLAR.0>
0

>  <SCORE.INTRA.REPUL>
0

>  <SCORE.INTRA.REPUL.0>
0

>  <SCORE.INTRA.VDW>
-226.665

>  <SCORE.INTRA.VDW.0>
225.973

>  <SCORE.INTRA.norm>
-7.1449

>  <SCORE.RESTR>
0.200686

>  <SCORE.RESTR.CAVITY>
0.200686

>  <SCORE.RESTR.norm>
0.00627145

>  <SCORE.SYSTEM>
-7.23798

>  <SCORE.SYSTEM.CONST>
0

>  <SCORE.SYSTEM.DIHEDRAL>
9.01932

>  <SCORE.SYSTEM.POLAR>
-4.50582

>  <SCORE.SYSTEM.REPUL>
0.031085

>  <SCORE.SYSTEM.VDW>
3.41673

>  <SCORE.SYSTEM.norm>
-0.226187

>  <SCORE.heavy>
32

>  <SCORE.norm>
-7.87738

$$$$
F3406-4716
  rDOCK(R)          3D
libRbt.so/2013.1/901 2013/11/27
 33 36  0  0  0  0  0  0  0  0999 V2000
  -25.6698   24.0643  -11.9674 C   0  0  0  0  0  0
  -24.6630   24.2172  -10.5164 C   0  0  0  0  0  0
  -25.6498   23.4397   -9.4265 C   0  0  0  0  0  0
  -22.5762   25.1385  -10.4171 C   0  0  0  0  0  0
  -20.9379   24.1349  -10.5711 C   0  0  0  0  0  0
  -20.3157   23.3746  -11.6858 N   0  0  0  0  0  0
  -20.5580   22.0245  -12.0020 C   0  0  0  0  0  0
  -19.8305   21.5339  -12.8847 O   0  0  0  0  0  0
  -21.6151   20.9988  -11.2664 C   0  0  0  0  0  0
  -23.0464   21.5281  -11.3772 C   0  0  0  0  0  0
  -24.0665   20.6001  -12.0649 C   0  0  0  0  0  0
  -23.4366   19.6317  -12.9968 N   0  0  0  0  0  0
  -22.6739   18.6895  -12.1751 C   0  0  0  0  0  0
  -21.6791   19.4405  -11.1998 C   0  0  0  0  0  0
  -23.8486   19.5544  -14.3715 C   0  0  0  0  0  0
  -24.7821   20.4363  -14.7352 N   0  0  0  0  0  0
  -25.1943   20.5027  -16.0800 C   0  0  0  0  0  0
  -24.6596   19.6812  -17.0177 C   0  0  0  0  0  0
  -25.2343   20.0054  -18.5912 S   0  0  0  0  0  0
  -26.1969   21.3154  -18.0319 C   0  0  0  0  0  0
  -26.1274   21.4344  -16.6502 C   0  0  0  0  0  0
  -23.6982   18.6651  -16.6967 C   0  0  0  0  0  0
  -23.2878   17.8665  -17.5394 O   0  0  0  0  0  0
  -23.2858   18.6306  -15.3250 N   0  3  0  0  0  0
  -22.4517   17.4120  -14.9838 C   0  0  0  0  0  0
  -20.8306   17.4586  -15.1007 C   0  0  0  0  0  0
  -19.8559   18.1934  -13.8108 C   0  0  0  0  0  0
  -18.2575   19.1453  -14.1005 C   0  0  0  0  0  0
  -17.6989   19.2034  -15.8462 C   0  0  0  0  0  0
  -16.4243   19.4378  -16.1592 F   0  0  0  0  0  0
  -18.7359   18.3635  -17.0779 C   0  0  0  0  0  0
  -20.2040   17.4909  -16.6679 C   0  0  0  0  0  0
  -19.5963   23.8070  -12.2659 H   0  0  0  0  0  0
  1  2  1  0  0  0
  2  3  1  0  0  0
  2  4  1  0  0  0
  4  5  1  0  0  0
  5  6  1  0  0  0
  6  7  1  0  0  0
  6 33  1  0  0  0
  7  8  2  0  0  0
  7  9  1  0  0  0
  9 10  1  0  0  0
  9 14  1  0  0  0
 10 11  1  0  0  0
 11 12  1  0  0  0
 12 13  1  0  0  0
 12 15  1  0  0  0
 13 14  1  0  0  0
 15 16  2  0  0  0
 15 24  1  0  0  0
 16 17  1  0  0  0
 17 18  2  0  0  0
 17 21  1  0  0  0
 18 19  1  0  0  0
 18 22  1  0  0  0
 19 20  1  0  0  0
 20 21  2  0  0  0
 22 23  2  0  0  0
 22 24  1  0  0  0
 24 25  1  0  0  0
 25 26  1  0  0  0
 26 27  2  0  0  0
 26 32  1  0  0  0
 27 28  1  0  0  0
 28 29  2  0  0  0
 29 30  1  0  0  0
 29 31  1  0  0  0
 31 32  2  0  0  0
M  END
>  <CHROM.0>
-60.12799149,-73.84737559,-43.27401871,-59.69407463,-32.32866673,176.62539029
-155.59312279,-168.92033605

>  <CHROM.1>
-93.47066644,66.51638346,-87.13047385,60.24332872,2.31899748,-100.06024353
80.27353312,-22.47818471,20.44489766,-14.18427006,1.77675375,-0.27788873
0.98286309

>  <Name>
F3406-4716

>  <RI>
1.61324e+07

>  <Rbt.Current_Directory>
/home/adria/Escritorio/rDock_CMTR_LC/2pxcA_model/inputs_sah

>  <Rbt.Executable>
rbdock ($Id: //depot/dev/client3/rdock/2013.1/src/exe/rbdock.cxx#4 $)

>  <Rbt.Library>
libRbt.so (2013.1, Build901 2013/11/27)

>  <Rbt.Parameter_File>
/home/adria/Escritorio/rDock_2013.1_src/data/scripts/dock.prm

>  <Rbt.Receptor>
sah_rdock.prm

>  <SCORE>
-248.977

>  <SCORE.INTER>
-10.6675

>  <SCORE.INTER.CONST>
1

>  <SCORE.INTER.POLAR>
-0.475269

>  <SCORE.INTER.REPUL>
0.18234

>  <SCORE.INTER.ROT>
7

>  <SCORE.INTER.VDW>
-22.3633

>  <SCORE.INTER.norm>
-0.333359

>  <SCORE.INTRA>
-230.954

>  <SCORE.INTRA.DIHEDRAL>
-3.12025

>  <SCORE.INTRA.DIHEDRAL.0>
14.6111

>  <SCORE.INTRA.POLAR>
0

>  <SCORE.INTRA.POLAR.0>
0

>  <SCORE.INTRA.REPUL>
0

>  <SCORE.INTRA.REPUL.0>
0

>  <SCORE.INTRA.VDW>
-229.394

>  <SCORE.INTRA.VDW.0>
225.973

>  <SCORE.INTRA.norm>
-7.21731

>  <SCORE.RESTR>
0.028871

>  <SCORE.RESTR.CAVITY>
0.028871

>  <SCORE.RESTR.norm>
0.000902219

>  <SCORE.SYSTEM>
-7.38476

>  <SCORE.SYSTEM.CONST>
0

>  <SCORE.SYSTEM.DIHEDRAL>
6.20076

>  <SCORE.SYSTEM.POLAR>
-4.05318

>  <SCORE.SYSTEM.REPUL>
0.0400135

>  <SCORE.SYSTEM.VDW>
3.0956

>  <SCORE.SYSTEM.norm>
-0.230774

>  <SCORE.heavy>
32

>  <SCORE.norm>
-7.78054

$$$$
F3406-4716
  rDOCK(R)          3D
libRbt.so/2013.1/901 2013/11/27
 33 36  0  0  0  0  0  0  0  0999 V2000
  -20.7376   23.3758  -12.5642 C   0  0  0  0  0  0
  -22.4733   23.0379  -12.4393 C   0  0  0  0  0  0
  -23.0660   24.4883  -12.9971 C   0  0  0  0  0  0
  -23.4168   21.0603  -11.7973 C   0  0  0  0  0  0
  -22.4938   19.6877  -10.8078 C   0  0  0  0  0  0
  -21.2726   18.8872  -11.0826 N   0  0  0  0  0  0
  -20.8768   18.3876  -12.3376 C   0  0  0  0  0  0
  -19.8972   17.6199  -12.3327 O   0  0  0  0  0  0
  -21.6237   18.6175  -13.7867 C   0  0  0  0  0  0
  -21.2128   19.9581  -14.3991 C   0  0  0  0  0  0
  -20.5627   19.9010  -15.7951 C   0  0  0  0  0  0
  -19.9218   18.5942  -16.0856 N   0  0  0  0  0  0
  -21.0014   17.6129  -16.2124 C   0  0  0  0  0  0
  -21.9596   17.6355  -14.9529 C   0  0  0  0  0  0
  -18.5384   18.5187  -16.4678 C   0  0  0  0  0  0
  -17.8553   19.6599  -16.3570 N   0  0  0  0  0  0
  -16.4728   19.6755  -16.6242 C   0  0  0  0  0  0
  -15.8189   18.5469  -16.9966 C   0  0  0  0  0  0
  -14.1376   18.7794  -17.1703 S   0  0  0  0  0  0
  -14.2575   20.4261  -16.6912 C   0  0  0  0  0  0
  -15.5807   20.7927  -16.4841 C   0  0  0  0  0  0
  -16.4917   17.2954  -17.1989 C   0  0  0  0  0  0
  -15.9037   16.3005  -17.6241 O   0  0  0  0  0  0
  -17.8939   17.3050  -16.9050 N   0  3  0  0  0  0
  -18.6037   16.0399  -17.3441 C   0  0  0  0  0  0
  -18.1012   14.5843  -16.8221 C   0  0  0  0  0  0
  -18.0541   14.2180  -15.0849 C   0  0  0  0  0  0
  -16.7577   13.1255  -14.2660 C   0  0  0  0  0  0
  -15.5493   12.3658  -15.4172 C   0  0  0  0  0  0
  -14.8717   11.2665  -15.0853 F   0  0  0  0  0  0
  -15.7267   12.7544  -17.1822 C   0  0  0  0  0  0
  -17.0008   13.7817  -17.8196 C   0  0  0  0  0  0
  -20.6651   18.5951  -10.3167 H   0  0  0  0  0  0
  1  2  1  0  0  0
  2  3  1  0  0  0
  2  4  1  0  0  0
  4  5  1  0  0  0
  5  6  1  0  0  0
  6  7  1  0  0  0
  6 33  1  0  0  0
  7  8  2  0  0  0
  7  9  1  0  0  0
  9 10  1  0  0  0
  9 14  1  0  0  0
 10 11  1  0  0  0
 11 12  1  0  0  0
 12 13  1  0  0  0
 12 15  1  0  0  0
 13 14  1  0  0  0
 15 16  2  0  0  0
 15 24  1  0  0  0
 16 17  1  0  0  0
 17 18  2  0  0  0
 17 21  1  0  0  0
 18 19  1  0  0  0
 18 22  1  0  0  0
 19 20  1  0  0  0
 20 21  2  0  0  0
 22 23  2  0  0  0
 22 24  1  0  0  0
 24 25  1  0  0  0
 25 26  1  0  0  0
 26 27  2  0  0  0
 26 32  1  0  0  0
 27 28  1  0  0  0
 28 29  2  0  0  0
 29 30  1  0  0  0
 29 31  1  0  0  0
 31 32  2  0  0  0
M  END
>  <CHROM.0>
-61.80297196,64.24540863,-9.10586321,63.09383675,-31.80415105,63.76931289
81.69250776,-161.63328519

>  <CHROM.1>
19.53088973,-59.19762402,-37.25582332,82.80720677,8.91113568,-135.35450791
59.01926141,-18.53926011,17.96891438,-15.18533795,-2.45589120,-0.61792191
3.04727551

>  <Name>
F3406-4716

>  <RI>
1.61324e+07

>  <Rbt.Current_Directory>
/home/adria/Escritorio/rDock_CMTR_LC/2pxcA_model/inputs_sah

>  <Rbt.Executable>
rbdock ($Id: //depot/dev/client3/rdock/2013.1/src/exe/rbdock.cxx#4 $)

>  <Rbt.Library>
libRbt.so (2013.1, Build901 2013/11/27)

>  <Rbt.Parameter_File>
/home/adria/Escritorio/rDock_2013.1_src/data/scripts/dock.prm

>  <Rbt.Receptor>
sah_rdock.prm

>  <SCORE>
-255.391

>  <SCORE.INTER>
-18.0521

>  <SCORE.INTER.CONST>
1

>  <SCORE.INTER.POLAR>
-1.15903

>  <SCORE.INTER.REPUL>
0.00718565

>  <SCORE.INTER.ROT>
7

>  <SCORE.INTER.VDW>
-26.5474

>  <SCORE.INTER.norm>
-0.564129

>  <SCORE.INTRA>
-230.547

>  <SCORE.INTRA.DIHEDRAL>
-4.53476

>  <SCORE.INTRA.DIHEDRAL.0>
14.6111

>  <SCORE.INTRA.POLAR>
0

>  <SCORE.INTRA.POLAR.0>
0

>  <SCORE.INTRA.REPUL>
0

>  <SCORE.INTRA.REPUL.0>
0

>  <SCORE.INTRA.VDW>
-228.28

>  <SCORE.INTRA.VDW.0>
225.973

>  <SCORE.INTRA.norm>
-7.20461

>  <SCORE.RESTR>
0.123251

>  <SCORE.RESTR.CAVITY>
0.123251

>  <SCORE.RESTR.norm>
0.0038516

>  <SCORE.SYSTEM>
-6.91459

>  <SCORE.SYSTEM.CONST>
0

>  <SCORE.SYSTEM.DIHEDRAL>
8.36475

>  <SCORE.SYSTEM.POLAR>
-4.22653

>  <SCORE.SYSTEM.VDW>
3.27325

>  <SCORE.SYSTEM.norm>
-0.216081

>  <SCORE.heavy>
32

>  <SCORE.norm>
-7.98097

$$$$
F3406-4716
  rDOCK(R)          3D
libRbt.so/2013.1/901 2013/11/27
 33 36  0  0  0  0  0  0  0  0999 V2000
  -25.0287   19.1415  -15.3658 C   0  0  0  0  0  0
  -24.9896   19.4651  -13.6233 C   0  0  0  0  0  0
  -26.1163   18.3493  -13.1217 C   0  0  0  0  0  0
  -23.6131   20.9438  -12.5596 C   0  0  0  0  0  0
  -22.3001   20.4477  -11.2386 C   0  0  0  0  0  0
  -21.1912   19.4588  -11.2330 N   0  0  0  0  0  0
  -20.8411   18.6034  -12.2947 C   0  0  0  0  0  0
  -19.9726   17.7488  -12.0405 O   0  0  0  0  0  0
  -21.5226   18.5365  -13.7919 C   0  0  0  0  0  0
  -21.2481   19.8262  -14.5680 C   0  0  0  0  0  0
  -20.5132   19.6706  -15.9136 C   0  0  0  0  0  0
  -19.6963   18.4339  -15.9910 N   0  0  0  0  0  0
  -20.6340   17.3095  -16.0246 C   0  0  0  0  0  0
  -21.6612   17.3719  -14.8222 C   0  0  0  0  0  0
  -18.2940   18.4931  -16.3002 C   0  0  0  0  0  0
  -17.7680   19.7195  -16.3203 N   0  0  0  0  0  0
  -16.3849   19.8832  -16.5284 C   0  0  0  0  0  0
  -15.5729   18.8123  -16.7123 C   0  0  0  0  0  0
  -13.9269   19.2413  -16.8455 S   0  0  0  0  0  0
  -14.2818   20.9062  -16.6055 C   0  0  0  0  0  0
  -15.6506   21.1178  -16.5075 C   0  0  0  0  0  0
  -16.0694   17.4668  -16.7669 C   0  0  0  0  0  0
  -15.3363   16.5115  -17.0244 O   0  0  0  0  0  0
  -17.4767   17.3287  -16.5367 N   0  3  0  0  0  0
  -17.9939   15.9336  -16.8252 C   0  0  0  0  0  0
  -17.1027   14.8815  -17.6869 C   0  0  0  0  0  0
  -17.3594   14.7052  -19.4353 C   0  0  0  0  0  0
  -17.1880   13.0822  -20.3742 C   0  0  0  0  0  0
  -16.6408   11.6567  -19.3587 C   0  0  0  0  0  0
  -16.0651   10.5899  -19.9138 F   0  0  0  0  0  0
  -16.3433   11.9608  -17.5932 C   0  0  0  0  0  0
  -16.5251   13.5384  -16.8429 C   0  0  0  0  0  0
  -20.6428   19.3045  -10.3866 H   0  0  0  0  0  0
  1  2  1  0  0  0
  2  3  1  0  0  0
  2  4  1  0  0  0
  4  5  1  0  0  0
  5  6  1  0  0  0
  6  7  1  0  0  0
  6 33  1  0  0  0
  7  8  2  0  0  0
  7  9  1  0  0  0
  9 10  1  0  0  0
  9 14  1  0  0  0
 10 11  1  0  0  0
 11 12  1  0  0  0
 12 13  1  0  0  0
 12 15  1  0  0  0
 13 14  1  0  0  0
 15 16  2  0  0  0
 15 24  1  0  0  0
 16 17  1  0  0  0
 17 18  2  0  0  0
 17 21  1  0  0  0
 18 19  1  0  0  0
 18 22  1  0  0  0
 19 20  1  0  0  0
 20 21  2  0  0  0
 22 23  2  0  0  0
 22 24  1  0  0  0
 24 25  1  0  0  0
 25 26  1  0  0  0
 26 27  2  0  0  0
 26 32  1  0  0  0
 27 28  1  0  0  0
 28 29  2  0  0  0
 29 30  1  0  0  0
 29 31  1  0  0  0
 31 32  2  0  0  0
M  END
>  <CHROM.0>
-177.71015781,-73.82339942,-9.32150845,147.16683398,-31.37701989,-54.62272922
81.47562919,-161.01543172

>  <CHROM.1>
-117.64105274,52.97932493,0.09420350,66.23561209,8.96601570,152.99299763
-95.40581788,-18.77735907,17.56120916,-15.85149427,2.42509283,0.34881961
0.44582495

>  <Name>
F3406-4716

>  <RI>
1.61324e+07

>  <Rbt.Current_Directory>
/home/adria/Escritorio/rDock_CMTR_LC/2pxcA_model/inputs_sah

>  <Rbt.Executable>
rbdock ($Id: //depot/dev/client3/rdock/2013.1/src/exe/rbdock.cxx#4 $)

>  <Rbt.Library>
libRbt.so (2013.1, Build901 2013/11/27)

>  <Rbt.Parameter_File>
/home/adria/Escritorio/rDock_2013.1_src/data/scripts/dock.prm

>  <Rbt.Receptor>
sah_rdock.prm

>  <SCORE>
-242.986

>  <SCORE.INTER>
-10.383

>  <SCORE.INTER.CONST>
1

>  <SCORE.INTER.POLAR>
-1.28057

>  <SCORE.INTER.REPUL>
0.00414312

>  <SCORE.INTER.ROT>
7

>  <SCORE.INTER.VDW>
-18.4497

>  <SCORE.INTER.norm>
-0.324467

>  <SCORE.INTRA>
-229.97

>  <SCORE.INTRA.DIHEDRAL>
-5.95112

>  <SCORE.INTRA.DIHEDRAL.0>
14.6111

>  <SCORE.INTRA.POLAR>
0

>  <SCORE.INTRA.POLAR.0>
0

>  <SCORE.INTRA.REPUL>
0

>  <SCORE.INTRA.REPUL.0>
0

>  <SCORE.INTRA.VDW>
-226.994

>  <SCORE.INTRA.VDW.0>
225.973

>  <SCORE.INTRA.norm>
-7.18655

>  <SCORE.RESTR>
0.941112

>  <SCORE.RESTR.CAVITY>
0.941112

>  <SCORE.RESTR.norm>
0.0294097

>  <SCORE.SYSTEM>
-3.5745

>  <SCORE.SYSTEM.CONST>
0

>  <SCORE.SYSTEM.DIHEDRAL>
13.3932

>  <SCORE.SYSTEM.POLAR>
-4.53062

>  <SCORE.SYSTEM.REPUL>
0.0399727

>  <SCORE.SYSTEM.VDW>
4.93316

>  <SCORE.SYSTEM.norm>
-0.111703

>  <SCORE.heavy>
32

>  <SCORE.norm>
-7.59331

$$$$
F3406-4716
  rDOCK(R)          3D
libRbt.so/2013.1/901 2013/11/27
 33 36  0  0  0  0  0  0  0  0999 V2000
  -14.7660   14.7159  -19.1176 C   0  0  0  0  0  0
  -16.4527   14.6095  -18.5827 C   0  0  0  0  0  0
  -17.0379   13.5851  -19.7551 C   0  0  0  0  0  0
  -17.3350   15.5761  -16.7118 C   0  0  0  0  0  0
  -19.1617   16.1710  -16.5556 C   0  0  0  0  0  0
  -19.8238   17.4818  -16.7810 N   0  0  0  0  0  0
  -20.6556   18.1558  -15.8671 C   0  0  0  0  0  0
  -21.2274   19.1729  -16.3003 O   0  0  0  0  0  0
  -21.0384   17.6938  -14.3339 C   0  0  0  0  0  0
  -20.2823   18.5425  -13.3097 C   0  0  0  0  0  0
  -21.1449   19.3199  -12.2966 C   0  0  0  0  0  0
  -22.5175   19.5940  -12.7902 N   0  0  0  0  0  0
  -23.2093   18.3048  -12.8529 C   0  0  0  0  0  0
  -22.3858   17.2421  -13.6879 C   0  0  0  0  0  0
  -23.0311   20.9354  -12.8381 C   0  0  0  0  0  0
  -22.1843   21.8828  -12.4297 N   0  0  0  0  0  0
  -22.5572   23.2379  -12.5168 C   0  0  0  0  0  0
  -23.7684   23.6007  -13.0084 C   0  0  0  0  0  0
  -23.9639   25.2924  -13.1128 S   0  0  0  0  0  0
  -22.3704   25.5704  -12.5303 C   0  0  0  0  0  0
  -21.7453   24.3776  -12.1917 C   0  0  0  0  0  0
  -24.7581   22.6417  -13.4092 C   0  0  0  0  0  0
  -25.8862   22.9805  -13.7682 O   0  0  0  0  0  0
  -24.3462   21.2721  -13.3246 N   0  3  0  0  0  0
  -25.4837   20.2932  -13.5373 C   0  0  0  0  0  0
  -25.5358   19.3603  -14.8680 C   0  0  0  0  0  0
  -25.5991   17.5913  -14.7251 C   0  0  0  0  0  0
  -24.7755   16.3998  -15.9281 C   0  0  0  0  0  0
  -23.9423   17.1957  -17.3545 C   0  0  0  0  0  0
  -23.7049   16.5247  -18.4819 F   0  0  0  0  0  0
  -23.9927   19.0091  -17.4393 C   0  0  0  0  0  0
  -24.8165   20.0069  -16.2517 C   0  0  0  0  0  0
  -19.7497   17.9475  -17.6858 H   0  0  0  0  0  0
  1  2  1  0  0  0
  2  3  1  0  0  0
  2  4  1  0  0  0
  4  5  1  0  0  0
  5  6  1  0  0  0
  6  7  1  0  0  0
  6 33  1  0  0  0
  7  8  2  0  0  0
  7  9  1  0  0  0
  9 10  1  0  0  0
  9 14  1  0  0  0
 10 11  1  0  0  0
 11 12  1  0  0  0
 12 13  1  0  0  0
 12 15  1  0  0  0
 13 14  1  0  0  0
 15 16  2  0  0  0
 15 24  1  0  0  0
 16 17  1  0  0  0
 17 18  2  0  0  0
 17 21  1  0  0  0
 18 19  1  0  0  0
 18 22  1  0  0  0
 19 20  1  0  0  0
 20 21  2  0  0  0
 22 23  2  0  0  0
 22 24  1  0  0  0
 24 25  1  0  0  0
 25 26  1  0  0  0
 26 27  2  0  0  0
 26 32  1  0  0  0
 27 28  1  0  0  0
 28 29  2  0  0  0
 29 30  1  0  0  0
 29 31  1  0  0  0
 31 32  2  0  0  0
M  END
>  <CHROM.0>
-178.00945337,64.26196809,-46.63342772,63.21333629,-30.65403816,176.83162986
-34.65668303,-165.24624120

>  <CHROM.1>
149.59661835,-93.51233583,-127.44239008,105.12196531,0.86103160,-79.75033228
122.68468292,-22.19078176,19.47245789,-14.90503460,-1.02614625,-0.00869845
0.56076402

>  <Name>
F3406-4716

>  <RI>
1.61324e+07

>  <Rbt.Current_Directory>
/home/adria/Escritorio/rDock_CMTR_LC/2pxcA_model/inputs_sah

>  <Rbt.Executable>
rbdock ($Id: //depot/dev/client3/rdock/2013.1/src/exe/rbdock.cxx#4 $)

>  <Rbt.Library>
libRbt.so (2013.1, Build901 2013/11/27)

>  <Rbt.Parameter_File>
/home/adria/Escritorio/rDock_2013.1_src/data/scripts/dock.prm

>  <Rbt.Receptor>
sah_rdock.prm

>  <SCORE>
-245.153

>  <SCORE.INTER>
-10.3159

>  <SCORE.INTER.CONST>
1

>  <SCORE.INTER.POLAR>
-1.22809

>  <SCORE.INTER.REPUL>
0.678161

>  <SCORE.INTER.ROT>
7

>  <SCORE.INTER.VDW>
-21.9312

>  <SCORE.INTER.norm>
-0.322371

>  <SCORE.INTRA>
-228.187

>  <SCORE.INTRA.DIHEDRAL>
2.32512

>  <SCORE.INTRA.DIHEDRAL.0>
14.6111

>  <SCORE.INTRA.POLAR>
0

>  <SCORE.INTRA.POLAR.0>
0

>  <SCORE.INTRA.REPUL>
0

>  <SCORE.INTRA.REPUL.0>
0

>  <SCORE.INTRA.VDW>
-229.349

>  <SCORE.INTRA.VDW.0>
225.973

>  <SCORE.INTRA.norm>
-7.13084

>  <SCORE.RESTR>
0

>  <SCORE.RESTR.CAVITY>
0

>  <SCORE.RESTR.norm>
0

>  <SCORE.SYSTEM>
-6.64984

>  <SCORE.SYSTEM.CONST>
0

>  <SCORE.SYSTEM.DIHEDRAL>
5.76076

>  <SCORE.SYSTEM.POLAR>
-3.66647

>  <SCORE.SYSTEM.VDW>
2.93579

>  <SCORE.SYSTEM.norm>
-0.207808

>  <SCORE.heavy>
32

>  <SCORE.norm>
-7.66102

$$$$
F3406-4716
  rDOCK(R)          3D
libRbt.so/2013.1/901 2013/11/27
 33 36  0  0  0  0  0  0  0  0999 V2000
  -18.7007   12.7121  -16.2450 C   0  0  0  0  0  0
  -17.8502   14.1474  -15.6456 C   0  0  0  0  0  0
  -16.3809   13.4544  -15.2887 C   0  0  0  0  0  0
  -18.6757   16.2753  -15.5889 C   0  0  0  0  0  0
  -17.8070   17.7986  -16.3889 C   0  0  0  0  0  0
  -18.0938   19.2563  -16.3671 N   0  0  0  0  0  0
  -19.1128   19.8874  -15.6291 C   0  0  0  0  0  0
  -19.2787   21.0996  -15.8577 O   0  0  0  0  0  0
  -20.1729   19.1845  -14.5837 C   0  0  0  0  0  0
  -19.6112   19.1897  -13.1605 C   0  0  0  0  0  0
  -20.4653   19.8988  -12.0916 C   0  0  0  0  0  0
  -21.3703   20.9291  -12.6591 N   0  0  0  0  0  0
  -22.3863   20.2170  -13.4370 C   0  0  0  0  0  0
  -21.7304   19.2337  -14.4895 C   0  0  0  0  0  0
  -21.3343   22.2856  -12.1856 C   0  0  0  0  0  0
  -20.2755   22.5975  -11.4353 N   0  0  0  0  0  0
  -20.0994   23.9222  -10.9916 C   0  0  0  0  0  0
  -20.9916   24.8925  -11.3120 C   0  0  0  0  0  0
  -20.5256   26.4353  -10.7521 S   0  0  0  0  0  0
  -19.0610   25.8185  -10.0964 C   0  0  0  0  0  0
  -18.9874   24.4398  -10.2436 C   0  0  0  0  0  0
  -22.1867   24.6261  -12.0608 C   0  0  0  0  0  0
  -23.0336   25.4957  -12.2678 O   0  0  0  0  0  0
  -22.3322   23.2741  -12.5121 N   0  3  0  0  0  0
  -23.7004   22.9846  -13.0964 C   0  0  0  0  0  0
  -24.6823   21.8895  -12.4033 C   0  0  0  0  0  0
  -24.3762   21.3271  -10.7468 C   0  0  0  0  0  0
  -24.7153   19.5769  -10.1412 C   0  0  0  0  0  0
  -25.4844   18.4662  -11.3810 C   0  0  0  0  0  0
  -26.1688   17.3830  -11.0121 F   0  0  0  0  0  0
  -25.8153   19.1610  -13.0260 C   0  0  0  0  0  0
  -25.4637   20.8269  -13.4570 C   0  0  0  0  0  0
  -17.5728   19.8929  -16.9708 H   0  0  0  0  0  0
  1  2  1  0  0  0
  2  3  1  0  0  0
  2  4  1  0  0  0
  4  5  1  0  0  0
  5  6  1  0  0  0
  6  7  1  0  0  0
  6 33  1  0  0  0
  7  8  2  0  0  0
  7  9  1  0  0  0
  9 10  1  0  0  0
  9 14  1  0  0  0
 10 11  1  0  0  0
 11 12  1  0  0  0
 12 13  1  0  0  0
 12 15  1  0  0  0
 13 14  1  0  0  0
 15 16  2  0  0  0
 15 24  1  0  0  0
 16 17  1  0  0  0
 17 18  2  0  0  0
 17 21  1  0  0  0
 18 19  1  0  0  0
 18 22  1  0  0  0
 19 20  1  0  0  0
 20 21  2  0  0  0
 22 23  2  0  0  0
 22 24  1  0  0  0
 24 25  1  0  0  0
 25 26  1  0  0  0
 26 27  2  0  0  0
 26 32  1  0  0  0
 27 28  1  0  0  0
 28 29  2  0  0  0
 29 30  1  0  0  0
 29 31  1  0  0  0
 31 32  2  0  0  0
M  END
>  <CHROM.0>
-61.59984764,-167.07676135,-45.77187293,-61.15853775,168.37936842,61.56595458
-36.69154089,-161.96230149

>  <CHROM.1>
-125.09002856,-173.52226196,4.02793617,90.70334860,13.34896020,51.45701209
16.05885959,-21.23956126,20.71680583,-12.97232293,1.23719658,-0.33122052
-2.80112305

>  <Name>
F3406-4716

>  <RI>
1.61324e+07

>  <Rbt.Current_Directory>
/home/adria/Escritorio/rDock_CMTR_LC/2pxcA_model/inputs_sah

>  <Rbt.Executable>
rbdock ($Id: //depot/dev/client3/rdock/2013.1/src/exe/rbdock.cxx#4 $)

>  <Rbt.Library>
libRbt.so (2013.1, Build901 2013/11/27)

>  <Rbt.Parameter_File>
/home/adria/Escritorio/rDock_2013.1_src/data/scripts/dock.prm

>  <Rbt.Receptor>
sah_rdock.prm

>  <SCORE>
-240.996

>  <SCORE.INTER>
-9.36017

>  <SCORE.INTER.CONST>
1

>  <SCORE.INTER.POLAR>
0

>  <SCORE.INTER.REPUL>
0.120486

>  <SCORE.INTER.ROT>
7

>  <SCORE.INTER.VDW>
-22.3626

>  <SCORE.INTER.norm>
-0.292505

>  <SCORE.INTRA>
-230.528

>  <SCORE.INTRA.DIHEDRAL>
-4.06797

>  <SCORE.INTRA.DIHEDRAL.0>
14.6111

>  <SCORE.INTRA.POLAR>
0

>  <SCORE.INTRA.POLAR.0>
0

>  <SCORE.INTRA.REPUL>
0

>  <SCORE.INTRA.REPUL.0>
0

>  <SCORE.INTRA.VDW>
-228.494

>  <SCORE.INTRA.VDW.0>
225.973

>  <SCORE.INTRA.norm>
-7.20399

>  <SCORE.RESTR>
0.162594

>  <SCORE.RESTR.CAVITY>
0.162594

>  <SCORE.RESTR.norm>
0.00508108

>  <SCORE.SYSTEM>
-1.27104

>  <SCORE.SYSTEM.CONST>
0

>  <SCORE.SYSTEM.DIHEDRAL>
3.58404

>  <SCORE.SYSTEM.POLAR>
-3.61689

>  <SCORE.SYSTEM.VDW>
9.23436

>  <SCORE.SYSTEM.norm>
-0.03972

>  <SCORE.heavy>
32

>  <SCORE.norm>
-7.53114

$$$$
F3406-4716
  rDOCK(R)          3D
libRbt.so/2013.1/901 2013/11/27
 33 36  0  0  0  0  0  0  0  0999 V2000
  -14.6471   14.1363  -18.9766 C   0  0  0  0  0  0
  -15.9881   14.9616  -18.1623 C   0  0  0  0  0  0
  -16.7125   13.6466  -17.4466 C   0  0  0  0  0  0
  -16.3578   17.2143  -18.1243 C   0  0  0  0  0  0
  -17.8412   18.0561  -17.2266 C   0  0  0  0  0  0
  -18.3073   19.4643  -17.1406 N   0  0  0  0  0  0
  -18.8496   20.0874  -16.0007 C   0  0  0  0  0  0
  -19.3116   21.2301  -16.1738 O   0  0  0  0  0  0
  -19.0373   19.4379  -14.4996 C   0  0  0  0  0  0
  -18.5361   20.4061  -13.4260 C   0  0  0  0  0  0
  -19.5607   20.8294  -12.3556 C   0  0  0  0  0  0
  -20.9663   20.7167  -12.8187 N   0  0  0  0  0  0
  -21.2503   19.2873  -12.9633 C   0  0  0  0  0  0
  -20.1742   18.5693  -13.8751 C   0  0  0  0  0  0
  -21.8526   21.8471  -12.7712 C   0  0  0  0  0  0
  -21.2842   22.9998  -12.4113 N   0  0  0  0  0  0
  -22.0445   24.1851  -12.4156 C   0  0  0  0  0  0
  -23.3516   24.1772  -12.7783 C   0  0  0  0  0  0
  -24.0436   25.7365  -12.8047 S   0  0  0  0  0  0
  -22.5516   26.4689  -12.3650 C   0  0  0  0  0  0
  -21.5740   25.5117  -12.1285 C   0  0  0  0  0  0
  -24.0517   22.9712  -13.1178 C   0  0  0  0  0  0
  -25.2596   22.9641  -13.3573 O   0  0  0  0  0  0
  -23.2503   21.7836  -13.1201 N   0  3  0  0  0  0
  -24.0664   20.5139  -13.2592 C   0  0  0  0  0  0
  -24.8722   19.9034  -11.9857 C   0  0  0  0  0  0
  -25.6506   20.9841  -10.8110 C   0  0  0  0  0  0
  -25.7793   20.6293   -8.9664 C   0  0  0  0  0  0
  -25.1034   19.0070   -8.4431 C   0  0  0  0  0  0
  -25.4922   18.4274   -7.3070 F   0  0  0  0  0  0
  -24.3883   17.9499   -9.7350 C   0  0  0  0  0  0
  -24.3473   18.3971  -11.4330 C   0  0  0  0  0  0
  -18.3123   20.0570  -17.9711 H   0  0  0  0  0  0
  1  2  1  0  0  0
  2  3  1  0  0  0
  2  4  1  0  0  0
  4  5  1  0  0  0
  5  6  1  0  0  0
  6  7  1  0  0  0
  6 33  1  0  0  0
  7  8  2  0  0  0
  7  9  1  0  0  0
  9 10  1  0  0  0
  9 14  1  0  0  0
 10 11  1  0  0  0
 11 12  1  0  0  0
 12 13  1  0  0  0
 12 15  1  0  0  0
 13 14  1  0  0  0
 15 16  2  0  0  0
 15 24  1  0  0  0
 16 17  1  0  0  0
 17 18  2  0  0  0
 17 21  1  0  0  0
 18 19  1  0  0  0
 18 22  1  0  0  0
 19 20  1  0  0  0
 20 21  2  0  0  0
 22 23  2  0  0  0
 22 24  1  0  0  0
 24 25  1  0  0  0
 25 26  1  0  0  0
 26 27  2  0  0  0
 26 32  1  0  0  0
 27 28  1  0  0  0
 28 29  2  0  0  0
 29 30  1  0  0  0
 29 31  1  0  0  0
 31 32  2  0  0  0
M  END
>  <CHROM.0>
-65.21344549,-76.55197514,-11.34123659,59.99253258,167.92223162,178.66387937
-35.51995980,-109.76813199

>  <CHROM.1>
179.71440110,-175.94832754,-141.99681265,133.08495485,6.14358353,90.93497732
36.96799291,-21.51344323,20.52119897,-13.38877261,0.40623727,-0.77103709
2.93472721

>  <Name>
F3406-4716

>  <RI>
1.61324e+07

>  <Rbt.Current_Directory>
/home/adria/Escritorio/rDock_CMTR_LC/2pxcA_model/inputs_sah

>  <Rbt.Executable>
rbdock ($Id: //depot/dev/client3/rdock/2013.1/src/exe/rbdock.cxx#4 $)

>  <Rbt.Library>
libRbt.so (2013.1, Build901 2013/11/27)

>  <Rbt.Parameter_File>
/home/adria/Escritorio/rDock_2013.1_src/data/scripts/dock.prm

>  <Rbt.Receptor>
sah_rdock.prm

>  <SCORE>
-233.914

>  <SCORE.INTER>
-5.73011

>  <SCORE.INTER.CONST>
1

>  <SCORE.INTER.POLAR>
0

>  <SCORE.INTER.REPUL>
1.03095

>  <SCORE.INTER.ROT>
7

>  <SCORE.INTER.VDW>
-23.2849

>  <SCORE.INTER.norm>
-0.179066

>  <SCORE.INTRA>
-229.28

>  <SCORE.INTRA.DIHEDRAL>
-2.68721

>  <SCORE.INTRA.DIHEDRAL.0>
14.6111

>  <SCORE.INTRA.POLAR>
0

>  <SCORE.INTRA.POLAR.0>
0

>  <SCORE.INTRA.REPUL>
0

>  <SCORE.INTRA.REPUL.0>
0

>  <SCORE.INTRA.VDW>
-227.936

>  <SCORE.INTRA.VDW.0>
225.973

>  <SCORE.INTRA.norm>
-7.16499

>  <SCORE.RESTR>
0.951905

>  <SCORE.RESTR.CAVITY>
0.951905

>  <SCORE.RESTR.norm>
0.029747

>  <SCORE.SYSTEM>
0.144401

>  <SCORE.SYSTEM.CONST>
0

>  <SCORE.SYSTEM.DIHEDRAL>
10.9333

>  <SCORE.SYSTEM.POLAR>
-4.22267

>  <SCORE.SYSTEM.REPUL>
0.0442522

>  <SCORE.SYSTEM.VDW>
8.8136

>  <SCORE.SYSTEM.norm>
0.00451254

>  <SCORE.heavy>
32

>  <SCORE.norm>
-7.3098

$$$$
F3406-4716
  rDOCK(R)          3D
libRbt.so/2013.1/901 2013/11/27
 33 36  0  0  0  0  0  0  0  0999 V2000
  -24.3149   19.4090   -8.4468 C   0  0  0  0  0  0
  -23.9365   19.2890  -10.1744 C   0  0  0  0  0  0
  -22.4995   20.1261  -10.1893 C   0  0  0  0  0  0
  -25.1445   18.1487  -11.7408 C   0  0  0  0  0  0
  -24.4242   16.7625  -12.8698 C   0  0  0  0  0  0
  -24.3487   16.5927  -14.3439 N   0  0  0  0  0  0
  -23.4215   17.2147  -15.2012 C   0  0  0  0  0  0
  -23.6150   17.0535  -16.4201 O   0  0  0  0  0  0
  -22.1817   18.2124  -14.7792 C   0  0  0  0  0  0
  -21.4070   17.6379  -13.5914 C   0  0  0  0  0  0
  -19.9023   17.3896  -13.8128 C   0  0  0  0  0  0
  -19.5485   17.1952  -15.2411 N   0  0  0  0  0  0
  -19.7447   18.4859  -15.9045 C   0  0  0  0  0  0
  -21.1930   19.0647  -15.6352 C   0  0  0  0  0  0
  -18.8519   16.0156  -15.6755 C   0  0  0  0  0  0
  -18.9950   14.9485  -14.8868 N   0  0  0  0  0  0
  -18.4243   13.7181  -15.2656 C   0  0  0  0  0  0
  -17.7259   13.5967  -16.4222 C   0  0  0  0  0  0
  -17.2129   11.9977  -16.7243 S   0  0  0  0  0  0
  -17.9789   11.4211  -15.2973 C   0  0  0  0  0  0
  -18.5432   12.4641  -14.5749 C   0  0  0  0  0  0
  -17.4741   14.7095  -17.2929 C   0  0  0  0  0  0
  -16.7629   14.6068  -18.2929 O   0  0  0  0  0  0
  -18.0792   15.9444  -16.8910 N   0  3  0  0  0  0
  -17.6067   17.1325  -17.7050 C   0  0  0  0  0  0
  -16.2651   17.9468  -17.2801 C   0  0  0  0  0  0
  -16.3763   19.3909  -16.2523 C   0  0  0  0  0  0
  -15.2488   20.8910  -16.4052 C   0  0  0  0  0  0
  -13.9274   20.7383  -17.6674 C   0  0  0  0  0  0
  -12.8215   21.4806  -17.6071 F   0  0  0  0  0  0
  -13.8627   19.1928  -18.6188 C   0  0  0  0  0  0
  -14.9724   17.8558  -18.3620 C   0  0  0  0  0  0
  -25.0468   16.0333  -14.8345 H   0  0  0  0  0  0
  1  2  1  0  0  0
  2  3  1  0  0  0
  2  4  1  0  0  0
  4  5  1  0  0  0
  5  6  1  0  0  0
  6  7  1  0  0  0
  6 33  1  0  0  0
  7  8  2  0  0  0
  7  9  1  0  0  0
  9 10  1  0  0  0
  9 14  1  0  0  0
 10 11  1  0  0  0
 11 12  1  0  0  0
 12 13  1  0  0  0
 12 15  1  0  0  0
 13 14  1  0  0  0
 15 16  2  0  0  0
 15 24  1  0  0  0
 16 17  1  0  0  0
 17 18  2  0  0  0
 17 21  1  0  0  0
 18 19  1  0  0  0
 18 22  1  0  0  0
 19 20  1  0  0  0
 20 21  2  0  0  0
 22 23  2  0  0  0
 22 24  1  0  0  0
 24 25  1  0  0  0
 25 26  1  0  0  0
 26 27  2  0  0  0
 26 32  1  0  0  0
 27 28  1  0  0  0
 28 29  2  0  0  0
 29 30  1  0  0  0
 29 31  1  0  0  0
 31 32  2  0  0  0
M  END
>  <CHROM.0>
38.54601188,60.58565228,-168.25355842,-61.89171784,168.24793310,-55.90260818
-155.50191676,-165.18761604

>  <CHROM.1>
-123.38723148,-122.71891451,78.73731527,45.64134128,24.15432394,81.88259987
-93.77560109,-19.22587157,16.94856914,-15.33224485,-2.94349242,-0.55581565
-2.94720343

>  <Name>
F3406-4716

>  <RI>
1.61324e+07

>  <Rbt.Current_Directory>
/home/adria/Escritorio/rDock_CMTR_LC/2pxcA_model/inputs_sah

>  <Rbt.Executable>
rbdock ($Id: //depot/dev/client3/rdock/2013.1/src/exe/rbdock.cxx#4 $)

>  <Rbt.Library>
libRbt.so (2013.1, Build901 2013/11/27)

>  <Rbt.Parameter_File>
/home/adria/Escritorio/rDock_2013.1_src/data/scripts/dock.prm

>  <Rbt.Receptor>
sah_rdock.prm

>  <SCORE>
-233.147

>  <SCORE.INTER>
-9.70623

>  <SCORE.INTER.CONST>
1

>  <SCORE.INTER.POLAR>
0

>  <SCORE.INTER.REPUL>
0.238464

>  <SCORE.INTER.ROT>
7

>  <SCORE.INTER.VDW>
-23.2985

>  <SCORE.INTER.norm>
-0.30332

>  <SCORE.INTRA>
-225.936

>  <SCORE.INTRA.DIHEDRAL>
4.45103

>  <SCORE.INTRA.DIHEDRAL.0>
14.6111

>  <SCORE.INTRA.POLAR>
0

>  <SCORE.INTRA.POLAR.0>
0

>  <SCORE.INTRA.REPUL>
0

>  <SCORE.INTRA.REPUL.0>
0

>  <SCORE.INTRA.VDW>
-228.162

>  <SCORE.INTRA.VDW.0>
225.973

>  <SCORE.INTRA.norm>
-7.06051

>  <SCORE.RESTR>
0.174672

>  <SCORE.RESTR.CAVITY>
0.174672

>  <SCORE.RESTR.norm>
0.00545851

>  <SCORE.SYSTEM>
2.32109

>  <SCORE.SYSTEM.CONST>
0

>  <SCORE.SYSTEM.DIHEDRAL>
4.69566

>  <SCORE.SYSTEM.POLAR>
-3.53847

>  <SCORE.SYSTEM.REPUL>
0.127776

>  <SCORE.SYSTEM.VDW>
11.3652

>  <SCORE.SYSTEM.norm>
0.0725342

>  <SCORE.heavy>
32

>  <SCORE.norm>
-7.28584

$$$$
F3406-4716
  rDOCK(R)          3D
libRbt.so/2013.1/901 2013/11/27
 33 36  0  0  0  0  0  0  0  0999 V2000
  -26.4704   18.4957  -12.9784 C   0  0  0  0  0  0
  -25.2849   19.8132  -13.0149 C   0  0  0  0  0  0
  -25.5327   20.3490  -14.5698 C   0  0  0  0  0  0
  -23.9825   20.5006  -11.2701 C   0  0  0  0  0  0
  -22.0591   20.3802  -11.2377 C   0  0  0  0  0  0
  -21.1131   19.2383  -11.3314 N   0  0  0  0  0  0
  -20.9196   18.4155  -12.4571 C   0  0  0  0  0  0
  -20.1855   17.4249  -12.2867 O   0  0  0  0  0  0
  -21.6352   18.5551  -13.9332 C   0  0  0  0  0  0
  -21.2499   19.8789  -14.5968 C   0  0  0  0  0  0
  -20.5621   19.7789  -15.9722 C   0  0  0  0  0  0
  -19.8741   18.4812  -16.1859 N   0  0  0  0  0  0
  -20.9194   17.4614  -16.2936 C   0  0  0  0  0  0
  -21.9103   17.5108  -15.0605 C   0  0  0  0  0  0
  -18.4796   18.4325  -16.5302 C   0  0  0  0  0  0
  -17.8260   19.5908  -16.4184 N   0  0  0  0  0  0
  -16.4376   19.6348  -16.6490 C   0  0  0  0  0  0
  -15.7481   18.5164  -16.9868 C   0  0  0  0  0  0
  -14.0685   18.7856  -17.1194 S   0  0  0  0  0  0
  -14.2391   20.4358  -16.6685 C   0  0  0  0  0  0
  -15.5754   20.7744  -16.5022 C   0  0  0  0  0  0
  -16.3864   17.2468  -17.1881 C   0  0  0  0  0  0
  -15.7645   16.2599  -17.5825 O   0  0  0  0  0  0
  -17.7959   17.2280  -16.9316 N   0  3  0  0  0  0
  -18.4645   15.9404  -17.3703 C   0  0  0  0  0  0
  -17.9572   14.5063  -16.7962 C   0  0  0  0  0  0
  -17.9467   14.1890  -15.0488 C   0  0  0  0  0  0
  -16.6572   13.1358  -14.1697 C   0  0  0  0  0  0
  -15.4131   12.3596  -15.2708 C   0  0  0  0  0  0
  -14.7305   11.2785  -14.8926 F   0  0  0  0  0  0
  -15.5535   12.6968  -17.0497 C   0  0  0  0  0  0
  -16.8242   13.6901  -17.7450 C   0  0  0  0  0  0
  -20.5765   18.9454  -10.5146 H   0  0  0  0  0  0
  1  2  1  0  0  0
  2  3  1  0  0  0
  2  4  1  0  0  0
  4  5  1  0  0  0
  5  6  1  0  0  0
  6  7  1  0  0  0
  6 33  1  0  0  0
  7  8  2  0  0  0
  7  9  1  0  0  0
  9 10  1  0  0  0
  9 14  1  0  0  0
 10 11  1  0  0  0
 11 12  1  0  0  0
 12 13  1  0  0  0
 12 15  1  0  0  0
 13 14  1  0  0  0
 15 16  2  0  0  0
 15 24  1  0  0  0
 16 17  1  0  0  0
 17 18  2  0  0  0
 17 21  1  0  0  0
 18 19  1  0  0  0
 18 22  1  0  0  0
 19 20  1  0  0  0
 20 21  2  0  0  0
 22 23  2  0  0  0
 22 24  1  0  0  0
 24 25  1  0  0  0
 25 26  1  0  0  0
 26 27  2  0  0  0
 26 32  1  0  0  0
 27 28  1  0  0  0
 28 29  2  0  0  0
 29 30  1  0  0  0
 29 31  1  0  0  0
 31 32  2  0  0  0
M  END
>  <CHROM.0>
-64.26948650,-72.55758019,73.66899374,65.43396185,-30.34342307,-54.28365215
83.68585080,-163.50917337

>  <CHROM.1>
115.61015412,-60.13296824,66.02421641,62.88977343,10.76302173,-134.44101107
57.93746465,-18.84071092,17.54887314,-15.27621820,2.76637616,0.46437404,-0.13974268

>  <Name>
F3406-4716

>  <RI>
1.61324e+07

>  <Rbt.Current_Directory>
/home/adria/Escritorio/rDock_CMTR_LC/2pxcA_model/inputs_sah

>  <Rbt.Executable>
rbdock ($Id: //depot/dev/client3/rdock/2013.1/src/exe/rbdock.cxx#4 $)

>  <Rbt.Library>
libRbt.so (2013.1, Build901 2013/11/27)

>  <Rbt.Parameter_File>
/home/adria/Escritorio/rDock_2013.1_src/data/scripts/dock.prm

>  <Rbt.Receptor>
sah_rdock.prm

>  <SCORE>
-252.682

>  <SCORE.INTER>
-13.8292

>  <SCORE.INTER.CONST>
1

>  <SCORE.INTER.POLAR>
-1.35151

>  <SCORE.INTER.REPUL>
0

>  <SCORE.INTER.ROT>
7

>  <SCORE.INTER.VDW>
-21.6341

>  <SCORE.INTER.norm>
-0.432164

>  <SCORE.INTRA>
-231.34

>  <SCORE.INTRA.DIHEDRAL>
-6.01282

>  <SCORE.INTRA.DIHEDRAL.0>
14.6111

>  <SCORE.INTRA.POLAR>
0

>  <SCORE.INTRA.POLAR.0>
0

>  <SCORE.INTRA.REPUL>
0

>  <SCORE.INTRA.REPUL.0>
0

>  <SCORE.INTRA.VDW>
-228.333

>  <SCORE.INTRA.VDW.0>
225.973

>  <SCORE.INTRA.norm>
-7.22937

>  <SCORE.RESTR>
0.158188

>  <SCORE.RESTR.CAVITY>
0.158188

>  <SCORE.RESTR.norm>
0.00494338

>  <SCORE.SYSTEM>
-7.67089

>  <SCORE.SYSTEM.CONST>
0

>  <SCORE.SYSTEM.DIHEDRAL>
6.64457

>  <SCORE.SYSTEM.POLAR>
-4.0703

>  <SCORE.SYSTEM.REPUL>
0.0377359

>  <SCORE.SYSTEM.VDW>
2.65715

>  <SCORE.SYSTEM.norm>
-0.239715

>  <SCORE.heavy>
32

>  <SCORE.norm>
-7.8963

$$$$
F3406-4716
  rDOCK(R)          3D
libRbt.so/2013.1/901 2013/11/27
 33 36  0  0  0  0  0  0  0  0999 V2000
  -15.4577   13.5268  -17.7955 C   0  0  0  0  0  0
  -15.8742   14.5680  -16.4226 C   0  0  0  0  0  0
  -15.9983   13.4070  -15.2382 C   0  0  0  0  0  0
  -16.0180   16.8464  -16.4563 C   0  0  0  0  0  0
  -17.6234   17.8389  -16.0653 C   0  0  0  0  0  0
  -17.9729   19.2798  -16.1605 N   0  0  0  0  0  0
  -19.0627   19.9094  -15.5300 C   0  0  0  0  0  0
  -19.2654   21.0949  -15.8505 O   0  0  0  0  0  0
  -20.1559   19.2276  -14.5050 C   0  0  0  0  0  0
  -19.6273   19.2353  -13.0692 C   0  0  0  0  0  0
  -20.4964   19.9628  -12.0251 C   0  0  0  0  0  0
  -21.3744   21.0009  -12.6203 N   0  0  0  0  0  0
  -22.3814   20.2967  -13.4169 C   0  0  0  0  0  0
  -21.7143   19.2977  -14.4473 C   0  0  0  0  0  0
  -21.3315   22.3600  -12.1549 C   0  0  0  0  0  0
  -20.2784   22.6672  -11.3947 N   0  0  0  0  0  0
  -20.0954   23.9932  -10.9574 C   0  0  0  0  0  0
  -20.9752   24.9693  -11.2940 C   0  0  0  0  0  0
  -20.5016   26.5115  -10.7388 S   0  0  0  0  0  0
  -19.0501   25.8858  -10.0625 C   0  0  0  0  0  0
  -18.9874   24.5055  -10.2001 C   0  0  0  0  0  0
  -22.1640   24.7088  -12.0547 C   0  0  0  0  0  0
  -23.0007   25.5847  -12.2768 O   0  0  0  0  0  0
  -22.3166   23.3553  -12.4991 N   0  3  0  0  0  0
  -23.6807   23.0744  -13.0970 C   0  0  0  0  0  0
  -24.6622   21.9604  -12.4341 C   0  0  0  0  0  0
  -24.4166   21.4278  -10.7578 C   0  0  0  0  0  0
  -24.7339   19.6763  -10.1441 C   0  0  0  0  0  0
  -25.4143   18.5287  -11.4021 C   0  0  0  0  0  0
  -26.0842   17.4311  -11.0496 F   0  0  0  0  0  0
  -25.6889   19.1931  -13.0698 C   0  0  0  0  0  0
  -25.3646   20.8629  -13.5074 C   0  0  0  0  0  0
  -17.4425   19.8992  -16.7737 H   0  0  0  0  0  0
  1  2  1  0  0  0
  2  3  1  0  0  0
  2  4  1  0  0  0
  4  5  1  0  0  0
  5  6  1  0  0  0
  6  7  1  0  0  0
  6 33  1  0  0  0
  7  8  2  0  0  0
  7  9  1  0  0  0
  9 10  1  0  0  0
  9 14  1  0  0  0
 10 11  1  0  0  0
 11 12  1  0  0  0
 12 13  1  0  0  0
 12 15  1  0  0  0
 13 14  1  0  0  0
 15 16  2  0  0  0
 15 24  1  0  0  0
 16 17  1  0  0  0
 17 18  2  0  0  0
 17 21  1  0  0  0
 18 19  1  0  0  0
 18 22  1  0  0  0
 19 20  1  0  0  0
 20 21  2  0  0  0
 22 23  2  0  0  0
 22 24  1  0  0  0
 24 25  1  0  0  0
 25 26  1  0  0  0
 26 27  2  0  0  0
 26 32  1  0  0  0
 27 28  1  0  0  0
 28 29  2  0  0  0
 29 30  1  0  0  0
 29 31  1  0  0  0
 31 32  2  0  0  0
M  END
>  <CHROM.0>
40.06867559,65.79662029,-8.47896718,61.34302409,35.75518610,-57.32800595
-157.07232553,-159.57883083

>  <CHROM.1>
118.95875495,-172.74619468,-162.80697706,85.42315806,14.06746106,49.61236638
19.45515568,-20.95520606,20.82603933,-13.03997534,-1.03068012,0.31498692
0.35414029

>  <Name>
F3406-4716

>  <RI>
1.61324e+07

>  <Rbt.Current_Directory>
/home/adria/Escritorio/rDock_CMTR_LC/2pxcA_model/inputs_sah

>  <Rbt.Executable>
rbdock ($Id: //depot/dev/client3/rdock/2013.1/src/exe/rbdock.cxx#4 $)

>  <Rbt.Library>
libRbt.so (2013.1, Build901 2013/11/27)

>  <Rbt.Parameter_File>
/home/adria/Escritorio/rDock_2013.1_src/data/scripts/dock.prm

>  <Rbt.Receptor>
sah_rdock.prm

>  <SCORE>
-229.594

>  <SCORE.INTER>
-8.60704

>  <SCORE.INTER.CONST>
1

>  <SCORE.INTER.POLAR>
0

>  <SCORE.INTER.REPUL>
0.142237

>  <SCORE.INTER.ROT>
7

>  <SCORE.INTER.VDW>
-21.7182

>  <SCORE.INTER.norm>
-0.26897

>  <SCORE.INTRA>
-230.139

>  <SCORE.INTRA.DIHEDRAL>
-4.39893

>  <SCORE.INTRA.DIHEDRAL.0>
14.6111

>  <SCORE.INTRA.POLAR>
0

>  <SCORE.INTRA.POLAR.0>
0

>  <SCORE.INTRA.REPUL>
0

>  <SCORE.INTRA.REPUL.0>
0

>  <SCORE.INTRA.VDW>
-227.94

>  <SCORE.INTRA.VDW.0>
225.973

>  <SCORE.INTRA.norm>
-7.19185

>  <SCORE.RESTR>
0.0462906

>  <SCORE.RESTR.CAVITY>
0.0462906

>  <SCORE.RESTR.norm>
0.00144658

>  <SCORE.SYSTEM>
9.1056

>  <SCORE.SYSTEM.CONST>
0

>  <SCORE.SYSTEM.DIHEDRAL>
9.67014

>  <SCORE.SYSTEM.POLAR>
-3.97471

>  <SCORE.SYSTEM.REPUL>
0.122965

>  <SCORE.SYSTEM.VDW>
17.1697

>  <SCORE.SYSTEM.norm>
0.28455

>  <SCORE.heavy>
32

>  <SCORE.norm>
-7.17483

$$$$
F3406-4716
  rDOCK(R)          3D
libRbt.so/2013.1/901 2013/11/27
 33 36  0  0  0  0  0  0  0  0999 V2000
  -15.9417   13.3615  -16.6199 C   0  0  0  0  0  0
  -15.5788   14.9147  -17.3934 C   0  0  0  0  0  0
  -14.6966   14.3641  -18.6913 C   0  0  0  0  0  0
  -16.3210   16.9636  -16.7121 C   0  0  0  0  0  0
  -17.5173   18.0792  -17.7315 C   0  0  0  0  0  0
  -18.0131   19.4676  -17.5471 N   0  0  0  0  0  0
  -18.5407   20.0059  -16.3582 C   0  0  0  0  0  0
  -19.0328   21.1455  -16.4489 O   0  0  0  0  0  0
  -18.6759   19.2607  -14.8964 C   0  0  0  0  0  0
  -18.1615   20.1692  -13.7778 C   0  0  0  0  0  0
  -19.1631   20.5059  -12.6561 C   0  0  0  0  0  0
  -20.5789   20.3964  -13.0879 N   0  0  0  0  0  0
  -20.8427   18.9739  -13.3144 C   0  0  0  0  0  0
  -19.7804   18.3340  -14.2977 C   0  0  0  0  0  0
  -21.4823   21.5051  -12.9460 C   0  0  0  0  0  0
  -20.9126   22.6614  -12.6001 N   0  0  0  0  0  0
  -21.6955   23.8290  -12.5178 C   0  0  0  0  0  0
  -23.0256   23.8003  -12.7825 C   0  0  0  0  0  0
  -23.7498   25.3438  -12.7178 S   0  0  0  0  0  0
  -22.2446   26.0990  -12.3718 C   0  0  0  0  0  0
  -21.2323   25.1587  -12.2329 C   0  0  0  0  0  0
  -23.7241   22.5872  -13.0994 C   0  0  0  0  0  0
  -24.9461   22.5586  -13.2486 O   0  0  0  0  0  0
  -22.9006   21.4184  -13.1915 N   0  3  0  0  0  0
  -23.6984   20.1343  -13.3017 C   0  0  0  0  0  0
  -24.4006   19.4801  -11.9893 C   0  0  0  0  0  0
  -26.1240   19.7539  -11.6598 C   0  0  0  0  0  0
  -26.8604   19.9237   -9.9352 C   0  0  0  0  0  0
  -25.6672   19.7005   -8.5608 C   0  0  0  0  0  0
  -26.0740   19.3601   -7.3375 F   0  0  0  0  0  0
  -23.9404   19.3597   -9.0077 C   0  0  0  0  0  0
  -23.3862   19.2082  -10.6674 C   0  0  0  0  0  0
  -18.0523   20.1100  -18.3387 H   0  0  0  0  0  0
  1  2  1  0  0  0
  2  3  1  0  0  0
  2  4  1  0  0  0
  4  5  1  0  0  0
  5  6  1  0  0  0
  6  7  1  0  0  0
  6 33  1  0  0  0
  7  8  2  0  0  0
  7  9  1  0  0  0
  9 10  1  0  0  0
  9 14  1  0  0  0
 10 11  1  0  0  0
 11 12  1  0  0  0
 12 13  1  0  0  0
 12 15  1  0  0  0
 13 14  1  0  0  0
 15 16  2  0  0  0
 15 24  1  0  0  0
 16 17  1  0  0  0
 17 18  2  0  0  0
 17 21  1  0  0  0
 18 19  1  0  0  0
 18 22  1  0  0  0
 19 20  1  0  0  0
 20 21  2  0  0  0
 22 23  2  0  0  0
 22 24  1  0  0  0
 24 25  1  0  0  0
 25 26  1  0  0  0
 26 27  2  0  0  0
 26 32  1  0  0  0
 27 28  1  0  0  0
 28 29  2  0  0  0
 29 30  1  0  0  0
 29 31  1  0  0  0
 31 32  2  0  0  0
M  END
>  <CHROM.0>
179.89767377,69.99148484,107.56927803,-62.68421307,-30.91922076,-176.98070108
-36.10400456,-49.21798029

>  <CHROM.1>
-114.69102747,-173.15796811,-48.32989261,132.70791427,9.63940427,91.27186017
98.40736018,-21.28002758,20.37715398,-13.42124370,0.38363162,-0.72120128
2.95471583

>  <Name>
F3406-4716

>  <RI>
1.61324e+07

>  <Rbt.Current_Directory>
/home/adria/Escritorio/rDock_CMTR_LC/2pxcA_model/inputs_sah

>  <Rbt.Executable>
rbdock ($Id: //depot/dev/client3/rdock/2013.1/src/exe/rbdock.cxx#4 $)

>  <Rbt.Library>
libRbt.so (2013.1, Build901 2013/11/27)

>  <Rbt.Parameter_File>
/home/adria/Escritorio/rDock_2013.1_src/data/scripts/dock.prm

>  <Rbt.Receptor>
sah_rdock.prm

>  <SCORE>
-239.18

>  <SCORE.INTER>
-6.00255

>  <SCORE.INTER.CONST>
1

>  <SCORE.INTER.POLAR>
0

>  <SCORE.INTER.REPUL>
0.933788

>  <SCORE.INTER.ROT>
7

>  <SCORE.INTER.VDW>
-23.0715

>  <SCORE.INTER.norm>
-0.18758

>  <SCORE.INTRA>
-230.338

>  <SCORE.INTRA.DIHEDRAL>
-4.16018

>  <SCORE.INTRA.DIHEDRAL.0>
14.6111

>  <SCORE.INTRA.POLAR>
0

>  <SCORE.INTRA.POLAR.0>
0

>  <SCORE.INTRA.REPUL>
0

>  <SCORE.INTRA.REPUL.0>
0

>  <SCORE.INTRA.VDW>
-228.258

>  <SCORE.INTRA.VDW.0>
225.973

>  <SCORE.INTRA.norm>
-7.19807

>  <SCORE.RESTR>
1.04463

>  <SCORE.RESTR.CAVITY>
1.04463

>  <SCORE.RESTR.norm>
0.0326447

>  <SCORE.SYSTEM>
-3.88368

>  <SCORE.SYSTEM.CONST>
0

>  <SCORE.SYSTEM.DIHEDRAL>
11.1828

>  <SCORE.SYSTEM.POLAR>
-3.87488

>  <SCORE.SYSTEM.REPUL>
0.0137602

>  <SCORE.SYSTEM.VDW>
3.6307

>  <SCORE.SYSTEM.norm>
-0.121365

>  <SCORE.heavy>
32

>  <SCORE.norm>
-7.47437

$$$$
F3406-4716
  rDOCK(R)          3D
libRbt.so/2013.1/901 2013/11/27
 33 36  0  0  0  0  0  0  0  0999 V2000
  -14.3429   18.2799  -18.0271 C   0  0  0  0  0  0
  -15.6034   17.0334  -18.0252 C   0  0  0  0  0  0
  -14.6515   15.6942  -18.2832 C   0  0  0  0  0  0
  -17.8269   17.3683  -17.6292 C   0  0  0  0  0  0
  -18.6662   19.1015  -17.5478 C   0  0  0  0  0  0
  -20.0201   19.5540  -17.1357 N   0  0  0  0  0  0
  -20.6064   19.3616  -15.8704 C   0  0  0  0  0  0
  -21.8029   19.6894  -15.7702 O   0  0  0  0  0  0
  -19.9235   18.6576  -14.5480 C   0  0  0  0  0  0
  -18.8328   19.5559  -13.9611 C   0  0  0  0  0  0
  -19.0138   19.9782  -12.4902 C   0  0  0  0  0  0
  -20.4296   19.9479  -12.0459 N   0  0  0  0  0  0
  -20.8312   18.5401  -12.0099 C   0  0  0  0  0  0
  -20.5341   17.8145  -13.3847 C   0  0  0  0  0  0
  -21.0513   21.1136  -11.4799 C   0  0  0  0  0  0
  -20.3466   22.2420  -11.5873 N   0  0  0  0  0  0
  -20.9014   23.4573  -11.1421 C   0  0  0  0  0  0
  -22.1445   23.5029  -10.6010 C   0  0  0  0  0  0
  -22.6482   25.0892  -10.2255 S   0  0  0  0  0  0
  -21.1900   25.7598  -10.8416 C   0  0  0  0  0  0
  -20.3129   24.7634  -11.2489 C   0  0  0  0  0  0
  -22.9402   22.3267  -10.3934 C   0  0  0  0  0  0
  -24.0286   22.3691   -9.8191 O   0  0  0  0  0  0
  -22.3578   21.1073  -10.8696 N   0  3  0  0  0  0
  -23.1193   19.8722  -10.4318 C   0  0  0  0  0  0
  -23.9308   18.9719  -11.5157 C   0  0  0  0  0  0
  -23.8723   17.1987  -11.4369 C   0  0  0  0  0  0
  -23.8969   16.0687  -12.9427 C   0  0  0  0  0  0
  -24.0739   16.9301  -14.5518 C   0  0  0  0  0  0
  -24.5355   16.2968  -15.6305 F   0  0  0  0  0  0
  -24.1909   18.7420  -14.5150 C   0  0  0  0  0  0
  -24.1726   19.6789  -13.0295 C   0  0  0  0  0  0
  -20.6441   19.9948  -17.8120 H   0  0  0  0  0  0
  1  2  1  0  0  0
  2  3  1  0  0  0
  2  4  1  0  0  0
  4  5  1  0  0  0
  5  6  1  0  0  0
  6  7  1  0  0  0
  6 33  1  0  0  0
  7  8  2  0  0  0
  7  9  1  0  0  0
  9 10  1  0  0  0
  9 14  1  0  0  0
 10 11  1  0  0  0
 11 12  1  0  0  0
 12 13  1  0  0  0
 12 15  1  0  0  0
 13 14  1  0  0  0
 15 16  2  0  0  0
 15 24  1  0  0  0
 16 17  1  0  0  0
 17 18  2  0  0  0
 17 21  1  0  0  0
 18 19  1  0  0  0
 18 22  1  0  0  0
 19 20  1  0  0  0
 20 21  2  0  0  0
 22 23  2  0  0  0
 22 24  1  0  0  0
 24 25  1  0  0  0
 25 26  1  0  0  0
 26 27  2  0  0  0
 26 32  1  0  0  0
 27 28  1  0  0  0
 28 29  2  0  0  0
 29 30  1  0  0  0
 29 31  1  0  0  0
 31 32  2  0  0  0
M  END
>  <CHROM.0>
-58.88717987,-71.18446906,111.86700463,63.51911074,168.50302709,63.89150016
83.90667962,-160.05902849

>  <CHROM.1>
11.21404608,-170.54444117,59.05616724,70.61182278,10.29320189,-79.83484765
138.05764081,-21.06564770,20.01493807,-13.36812527,-0.98178604,0.44918251
0.58833336

>  <Name>
F3406-4716

>  <RI>
1.61324e+07

>  <Rbt.Current_Directory>
/home/adria/Escritorio/rDock_CMTR_LC/2pxcA_model/inputs_sah

>  <Rbt.Executable>
rbdock ($Id: //depot/dev/client3/rdock/2013.1/src/exe/rbdock.cxx#4 $)

>  <Rbt.Library>
libRbt.so (2013.1, Build901 2013/11/27)

>  <Rbt.Parameter_File>
/home/adria/Escritorio/rDock_2013.1_src/data/scripts/dock.prm

>  <Rbt.Receptor>
sah_rdock.prm

>  <SCORE>
-244.923

>  <SCORE.INTER>
-10.4671

>  <SCORE.INTER.CONST>
1

>  <SCORE.INTER.POLAR>
-0.386187

>  <SCORE.INTER.REPUL>
0.916515

>  <SCORE.INTER.ROT>
7

>  <SCORE.INTER.VDW>
-26.1366

>  <SCORE.INTER.norm>
-0.327097

>  <SCORE.INTRA>
-232.095

>  <SCORE.INTRA.DIHEDRAL>
-5.563

>  <SCORE.INTRA.DIHEDRAL.0>
14.6111

>  <SCORE.INTRA.POLAR>
0

>  <SCORE.INTRA.POLAR.0>
0

>  <SCORE.INTRA.REPUL>
0

>  <SCORE.INTRA.REPUL.0>
0

>  <SCORE.INTRA.VDW>
-229.314

>  <SCORE.INTRA.VDW.0>
225.973

>  <SCORE.INTRA.norm>
-7.25298

>  <SCORE.RESTR>
0

>  <SCORE.RESTR.CAVITY>
0

>  <SCORE.RESTR.norm>
0

>  <SCORE.SYSTEM>
-2.36083

>  <SCORE.SYSTEM.CONST>
0

>  <SCORE.SYSTEM.DIHEDRAL>
6.57038

>  <SCORE.SYSTEM.POLAR>
-4.50636

>  <SCORE.SYSTEM.REPUL>
0.0351335

>  <SCORE.SYSTEM.VDW>
9.49993

>  <SCORE.SYSTEM.norm>
-0.073776

>  <SCORE.heavy>
32

>  <SCORE.norm>
-7.65385

$$$$
F3406-4716
  rDOCK(R)          3D
libRbt.so/2013.1/901 2013/11/27
 33 36  0  0  0  0  0  0  0  0999 V2000
  -24.2422   19.4825  -16.6247 C   0  0  0  0  0  0
  -25.1948   19.0296  -15.1999 C   0  0  0  0  0  0
  -25.5956   17.4747  -15.6330 C   0  0  0  0  0  0
  -25.5400   20.3177  -13.3466 C   0  0  0  0  0  0
  -24.4838   21.8629  -12.8863 C   0  0  0  0  0  0
  -24.3800   23.2283  -13.4629 N   0  0  0  0  0  0
  -23.2460   24.0610  -13.4169 C   0  0  0  0  0  0
  -23.4075   25.2230  -13.8329 O   0  0  0  0  0  0
  -21.7697   23.7065  -12.7803 C   0  0  0  0  0  0
  -21.9187   23.0211  -11.4205 C   0  0  0  0  0  0
  -21.2797   21.6253  -11.2854 C   0  0  0  0  0  0
  -21.1296   20.9255  -12.5856 N   0  0  0  0  0  0
  -20.1101   21.6548  -13.3428 C   0  0  0  0  0  0
  -20.4473   23.1984  -13.4360 C   0  0  0  0  0  0
  -21.6915   19.6186  -12.7903 C   0  0  0  0  0  0
  -22.3978   19.1371  -11.7654 N   0  0  0  0  0  0
  -23.0623   17.9022  -11.8937 C   0  0  0  0  0  0
  -22.9958   17.1875  -13.0447 C   0  0  0  0  0  0
  -23.9553   15.7772  -13.0080 S   0  0  0  0  0  0
  -24.5255   16.1369  -11.4265 C   0  0  0  0  0  0
  -23.9176   17.2789  -10.9222 C   0  0  0  0  0  0
  -22.2075   17.6054  -14.1689 C   0  0  0  0  0  0
  -22.0822   16.9046  -15.1737 O   0  0  0  0  0  0
  -21.5553   18.8719  -14.0164 N   0  3  0  0  0  0
  -20.5613   19.1675  -15.1218 C   0  0  0  0  0  0
  -19.0089   18.7034  -14.9857 C   0  0  0  0  0  0
  -17.6945   19.8642  -15.2662 C   0  0  0  0  0  0
  -16.0384   19.4233  -16.0460 C   0  0  0  0  0  0
  -15.8190   17.6458  -16.4394 C   0  0  0  0  0  0
  -14.6056   17.1100  -16.5749 F   0  0  0  0  0  0
  -17.2010   16.5331  -16.0522 C   0  0  0  0  0  0
  -18.6945   17.0755  -15.3038 C   0  0  0  0  0  0
  -25.1950   23.6715  -13.8876 H   0  0  0  0  0  0
  1  2  1  0  0  0
  2  3  1  0  0  0
  2  4  1  0  0  0
  4  5  1  0  0  0
  5  6  1  0  0  0
  6  7  1  0  0  0
  6 33  1  0  0  0
  7  8  2  0  0  0
  7  9  1  0  0  0
  9 10  1  0  0  0
  9 14  1  0  0  0
 10 11  1  0  0  0
 11 12  1  0  0  0
 12 13  1  0  0  0
 12 15  1  0  0  0
 13 14  1  0  0  0
 15 16  2  0  0  0
 15 24  1  0  0  0
 16 17  1  0  0  0
 17 18  2  0  0  0
 17 21  1  0  0  0
 18 19  1  0  0  0
 18 22  1  0  0  0
 19 20  1  0  0  0
 20 21  2  0  0  0
 22 23  2  0  0  0
 22 24  1  0  0  0
 24 25  1  0  0  0
 25 26  1  0  0  0
 26 27  2  0  0  0
 26 32  1  0  0  0
 27 28  1  0  0  0
 28 29  2  0  0  0
 29 30  1  0  0  0
 29 31  1  0  0  0
 31 32  2  0  0  0
M  END
>  <CHROM.0>
177.24810665,-76.74080989,-167.12478715,60.75776041,-29.52590264,-58.00204463
-156.98065517,-157.89128910

>  <CHROM.1>
-16.67121881,71.51629098,-152.06991984,-44.63661140,3.33170666,79.37434444
-129.30202748,-21.66681556,19.46162131,-13.86008479,2.68795258,0.31622979
0.14339773

>  <Name>
F3406-4716

>  <RI>
1.61324e+07

>  <Rbt.Current_Directory>
/home/adria/Escritorio/rDock_CMTR_LC/2pxcA_model/inputs_sah

>  <Rbt.Executable>
rbdock ($Id: //depot/dev/client3/rdock/2013.1/src/exe/rbdock.cxx#4 $)

>  <Rbt.Library>
libRbt.so (2013.1, Build901 2013/11/27)

>  <Rbt.Parameter_File>
/home/adria/Escritorio/rDock_2013.1_src/data/scripts/dock.prm

>  <Rbt.Receptor>
sah_rdock.prm

>  <SCORE>
-249.929

>  <SCORE.INTER>
-9.8551

>  <SCORE.INTER.CONST>
1

>  <SCORE.INTER.POLAR>
-0.764034

>  <SCORE.INTER.REPUL>
0

>  <SCORE.INTER.ROT>
7

>  <SCORE.INTER.VDW>
-19.6574

>  <SCORE.INTER.norm>
-0.307972

>  <SCORE.INTRA>
-233.324

>  <SCORE.INTRA.DIHEDRAL>
-4.25628

>  <SCORE.INTRA.DIHEDRAL.0>
14.6111

>  <SCORE.INTRA.POLAR>
0

>  <SCORE.INTRA.POLAR.0>
0

>  <SCORE.INTRA.REPUL>
0

>  <SCORE.INTRA.REPUL.0>
0

>  <SCORE.INTRA.VDW>
-231.196

>  <SCORE.INTRA.VDW.0>
225.973

>  <SCORE.INTRA.norm>
-7.29136

>  <SCORE.RESTR>
0.448406

>  <SCORE.RESTR.CAVITY>
0.448406

>  <SCORE.RESTR.norm>
0.0140127

>  <SCORE.SYSTEM>
-7.1988

>  <SCORE.SYSTEM.CONST>
0

>  <SCORE.SYSTEM.DIHEDRAL>
7.26669

>  <SCORE.SYSTEM.POLAR>
-4.0803

>  <SCORE.SYSTEM.REPUL>
0.0445205

>  <SCORE.SYSTEM.VDW>
2.81826

>  <SCORE.SYSTEM.norm>
-0.224963

>  <SCORE.heavy>
32

>  <SCORE.norm>
-7.81029

$$$$
F3406-4716
  rDOCK(R)          3D
libRbt.so/2013.1/901 2013/11/27
 33 36  0  0  0  0  0  0  0  0999 V2000
  -14.8182   18.4317  -17.3654 C   0  0  0  0  0  0
  -16.5584   18.4182  -17.0282 C   0  0  0  0  0  0
  -16.9789   17.0425  -17.8629 C   0  0  0  0  0  0
  -17.6822   19.8901  -15.6926 C   0  0  0  0  0  0
  -18.3878   19.4563  -13.9522 C   0  0  0  0  0  0
  -18.9659   20.2795  -12.8587 N   0  0  0  0  0  0
  -20.1172   19.9693  -12.1107 C   0  0  0  0  0  0
  -20.5183   20.8576  -11.3365 O   0  0  0  0  0  0
  -21.0480   18.6158  -12.2220 C   0  0  0  0  0  0
  -22.3850   18.8198  -11.5066 C   0  0  0  0  0  0
  -23.6530   18.6360  -12.3629 C   0  0  0  0  0  0
  -23.4141   18.8555  -13.8112 N   0  0  0  0  0  0
  -22.5723   17.7498  -14.2730 C   0  0  0  0  0  0
  -21.2714   17.5980  -13.3844 C   0  0  0  0  0  0
  -24.1877   19.8151  -14.5503 C   0  0  0  0  0  0
  -24.1400   19.6822  -15.8775 N   0  0  0  0  0  0
  -24.9289   20.5170  -16.6921 C   0  0  0  0  0  0
  -25.7393   21.4606  -16.1507 C   0  0  0  0  0  0
  -26.6728   22.2840  -17.3176 S   0  0  0  0  0  0
  -26.0232   21.3319  -18.5932 C   0  0  0  0  0  0
  -25.0510   20.4595  -18.1223 C   0  0  0  0  0  0
  -25.8002   21.7084  -14.7384 C   0  0  0  0  0  0
  -26.4704   22.6271  -14.2661 O   0  0  0  0  0  0
  -24.9995   20.8347  -13.9332 N   0  3  0  0  0  0
  -24.9153   21.2700  -12.4838 C   0  0  0  0  0  0
  -24.3992   22.7622  -12.0958 C   0  0  0  0  0  0
  -23.4357   23.7095  -13.2483 C   0  0  0  0  0  0
  -22.0568   24.8936  -12.7569 C   0  0  0  0  0  0
  -21.8095   25.0834  -10.9499 C   0  0  0  0  0  0
  -21.2106   26.1605  -10.4412 F   0  0  0  0  0  0
  -22.8924   24.1178   -9.8578 C   0  0  0  0  0  0
  -24.1598   23.0562  -10.4507 C   0  0  0  0  0  0
  -18.5646   21.1898  -12.6318 H   0  0  0  0  0  0
  1  2  1  0  0  0
  2  3  1  0  0  0
  2  4  1  0  0  0
  4  5  1  0  0  0
  5  6  1  0  0  0
  6  7  1  0  0  0
  6 33  1  0  0  0
  7  8  2  0  0  0
  7  9  1  0  0  0
  9 10  1  0  0  0
  9 14  1  0  0  0
 10 11  1  0  0  0
 11 12  1  0  0  0
 12 13  1  0  0  0
 12 15  1  0  0  0
 13 14  1  0  0  0
 15 16  2  0  0  0
 15 24  1  0  0  0
 16 17  1  0  0  0
 17 18  2  0  0  0
 17 21  1  0  0  0
 18 19  1  0  0  0
 18 22  1  0  0  0
 19 20  1  0  0  0
 20 21  2  0  0  0
 22 23  2  0  0  0
 22 24  1  0  0  0
 24 25  1  0  0  0
 25 26  1  0  0  0
 26 27  2  0  0  0
 26 32  1  0  0  0
 27 28  1  0  0  0
 28 29  2  0  0  0
 29 30  1  0  0  0
 29 31  1  0  0  0
 31 32  2  0  0  0
M  END
>  <CHROM.0>
179.76321393,-74.67354754,-44.68853037,66.51330862,33.53917577,58.06967736
-156.00228621,-160.39472680

>  <CHROM.1>
-107.51011422,169.97965333,136.35617877,-165.50137646,-163.07536856,113.23584214
-20.35252983,-22.49280470,20.89365289,-14.10637777,0.40168776,0.33243374
-2.17155612

>  <Name>
F3406-4716

>  <RI>
1.61324e+07

>  <Rbt.Current_Directory>
/home/adria/Escritorio/rDock_CMTR_LC/2pxcA_model/inputs_sah

>  <Rbt.Executable>
rbdock ($Id: //depot/dev/client3/rdock/2013.1/src/exe/rbdock.cxx#4 $)

>  <Rbt.Library>
libRbt.so (2013.1, Build901 2013/11/27)

>  <Rbt.Parameter_File>
/home/adria/Escritorio/rDock_2013.1_src/data/scripts/dock.prm

>  <Rbt.Receptor>
sah_rdock.prm

>  <SCORE>
-241.572

>  <SCORE.INTER>
-17.7529

>  <SCORE.INTER.CONST>
1

>  <SCORE.INTER.POLAR>
-1.44321

>  <SCORE.INTER.REPUL>
0

>  <SCORE.INTER.ROT>
7

>  <SCORE.INTER.VDW>
-25.246

>  <SCORE.INTER.norm>
-0.554779

>  <SCORE.INTRA>
-228.564

>  <SCORE.INTRA.DIHEDRAL>
-3.13727

>  <SCORE.INTRA.DIHEDRAL.0>
14.6111

>  <SCORE.INTRA.POLAR>
0

>  <SCORE.INTRA.POLAR.0>
0

>  <SCORE.INTRA.REPUL>
0

>  <SCORE.INTRA.REPUL.0>
0

>  <SCORE.INTRA.VDW>
-226.996

>  <SCORE.INTRA.VDW.0>
225.973

>  <SCORE.INTRA.norm>
-7.14263

>  <SCORE.RESTR>
0.182222

>  <SCORE.RESTR.CAVITY>
0.182222

>  <SCORE.RESTR.norm>
0.00569445

>  <SCORE.SYSTEM>
4.56265

>  <SCORE.SYSTEM.CONST>
0

>  <SCORE.SYSTEM.DIHEDRAL>
6.49695

>  <SCORE.SYSTEM.POLAR>
-3.79707

>  <SCORE.SYSTEM.REPUL>
0.0413862

>  <SCORE.SYSTEM.VDW>
14.0173

>  <SCORE.SYSTEM.norm>
0.142583

>  <SCORE.heavy>
32

>  <SCORE.norm>
-7.54913

$$$$
F3406-4716
  rDOCK(R)          3D
libRbt.so/2013.1/901 2013/11/27
 33 36  0  0  0  0  0  0  0  0999 V2000
  -24.6055   16.0084  -18.3917 C   0  0  0  0  0  0
  -24.4238   17.4470  -17.3720 C   0  0  0  0  0  0
  -25.7521   18.3054  -17.8866 C   0  0  0  0  0  0
  -22.8249   17.7715  -15.7748 C   0  0  0  0  0  0
  -21.4669   19.1367  -15.8596 C   0  0  0  0  0  0
  -20.5012   19.5420  -16.9135 N   0  0  0  0  0  0
  -19.2826   20.2146  -16.7036 C   0  0  0  0  0  0
  -18.6855   20.5906  -17.7290 O   0  0  0  0  0  0
  -18.6160   20.6510  -15.2629 C   0  0  0  0  0  0
  -19.2914   21.9098  -14.7149 C   0  0  0  0  0  0
  -19.9370   21.7870  -13.3210 C   0  0  0  0  0  0
  -20.3119   20.3935  -12.9740 N   0  0  0  0  0  0
  -19.0621   19.6513  -12.7968 C   0  0  0  0  0  0
  -18.1096   19.8070  -14.0512 C   0  0  0  0  0  0
  -21.6586   20.0634  -12.5956 C   0  0  0  0  0  0
  -21.8619   18.7830  -12.2785 N   0  0  0  0  0  0
  -23.1249   18.3708  -11.8117 C   0  0  0  0  0  0
  -24.1453   19.2548  -11.6798 C   0  0  0  0  0  0
  -25.5478   18.5552  -11.0055 S   0  0  0  0  0  0
  -24.7737   17.0301  -10.8322 C   0  0  0  0  0  0
  -23.4902   17.0564  -11.3615 C   0  0  0  0  0  0
  -24.0262   20.6341  -12.0583 C   0  0  0  0  0  0
  -24.9850   21.4058  -12.0193 O   0  0  0  0  0  0
  -22.7268   21.0288  -12.5148 N   0  3  0  0  0  0
  -22.7026   22.4210  -13.1133 C   0  0  0  0  0  0
  -22.8988   23.7314  -12.1709 C   0  0  0  0  0  0
  -21.8200   25.1318  -12.3405 C   0  0  0  0  0  0
  -21.2655   26.2230  -10.9098 C   0  0  0  0  0  0
  -21.9940   25.7926   -9.2830 C   0  0  0  0  0  0
  -22.0600   26.6850   -8.2946 F   0  0  0  0  0  0
  -23.1366   24.3820   -9.2321 C   0  0  0  0  0  0
  -23.5855   23.4536  -10.6538 C   0  0  0  0  0  0
  -20.7230   19.3968  -17.8988 H   0  0  0  0  0  0
  1  2  1  0  0  0
  2  3  1  0  0  0
  2  4  1  0  0  0
  4  5  1  0  0  0
  5  6  1  0  0  0
  6  7  1  0  0  0
  6 33  1  0  0  0
  7  8  2  0  0  0
  7  9  1  0  0  0
  9 10  1  0  0  0
  9 14  1  0  0  0
 10 11  1  0  0  0
 11 12  1  0  0  0
 12 13  1  0  0  0
 12 15  1  0  0  0
 13 14  1  0  0  0
 15 16  2  0  0  0
 15 24  1  0  0  0
 16 17  1  0  0  0
 17 18  2  0  0  0
 17 21  1  0  0  0
 18 19  1  0  0  0
 18 22  1  0  0  0
 19 20  1  0  0  0
 20 21  2  0  0  0
 22 23  2  0  0  0
 22 24  1  0  0  0
 24 25  1  0  0  0
 25 26  1  0  0  0
 26 27  2  0  0  0
 26 32  1  0  0  0
 27 28  1  0  0  0
 28 29  2  0  0  0
 29 30  1  0  0  0
 29 31  1  0  0  0
 31 32  2  0  0  0
M  END
>  <CHROM.0>
-60.75409792,64.72492037,-113.89849651,61.43280943,-32.36537390,179.92367719
-36.76538079,-161.33244132

>  <CHROM.1>
115.72088942,-50.19910559,-156.13390029,-78.35551203,-178.56734110,-121.44706953
133.81564120,-22.26915988,20.66307944,-13.19655079,1.61516485,-0.62354837
-2.36261025

>  <Name>
F3406-4716

>  <RI>
1.61324e+07

>  <Rbt.Current_Directory>
/home/adria/Escritorio/rDock_CMTR_LC/2pxcA_model/inputs_sah

>  <Rbt.Executable>
rbdock ($Id: //depot/dev/client3/rdock/2013.1/src/exe/rbdock.cxx#4 $)

>  <Rbt.Library>
libRbt.so (2013.1, Build901 2013/11/27)

>  <Rbt.Parameter_File>
/home/adria/Escritorio/rDock_2013.1_src/data/scripts/dock.prm

>  <Rbt.Receptor>
sah_rdock.prm

>  <SCORE>
-246.589

>  <SCORE.INTER>
-10.2552

>  <SCORE.INTER.CONST>
1

>  <SCORE.INTER.POLAR>
-0.837255

>  <SCORE.INTER.REPUL>
0.0936162

>  <SCORE.INTER.ROT>
7

>  <SCORE.INTER.VDW>
-20.2766

>  <SCORE.INTER.norm>
-0.320474

>  <SCORE.INTRA>
-230.109

>  <SCORE.INTRA.DIHEDRAL>
-4.53548

>  <SCORE.INTRA.DIHEDRAL.0>
14.6111

>  <SCORE.INTRA.POLAR>
0

>  <SCORE.INTRA.POLAR.0>
0

>  <SCORE.INTRA.REPUL>
0

>  <SCORE.INTRA.REPUL.0>
0

>  <SCORE.INTRA.VDW>
-227.841

>  <SCORE.INTRA.VDW.0>
225.973

>  <SCORE.INTRA.norm>
-7.19091

>  <SCORE.RESTR>
0.0050774

>  <SCORE.RESTR.CAVITY>
0.0050774

>  <SCORE.RESTR.norm>
0.000158669

>  <SCORE.SYSTEM>
-6.22938

>  <SCORE.SYSTEM.CONST>
0

>  <SCORE.SYSTEM.DIHEDRAL>
8.45423

>  <SCORE.SYSTEM.POLAR>
-4.07481

>  <SCORE.SYSTEM.VDW>
3.39788

>  <SCORE.SYSTEM.norm>
-0.194668

>  <SCORE.heavy>
32

>  <SCORE.norm>
-7.70589

$$$$
F3406-4716
  rDOCK(R)          3D
libRbt.so/2013.1/901 2013/11/27
 33 36  0  0  0  0  0  0  0  0999 V2000
  -24.9595   14.6377  -17.1466 C   0  0  0  0  0  0
  -24.4616   16.1926  -17.8372 C   0  0  0  0  0  0
  -23.7517   15.6448  -19.2379 C   0  0  0  0  0  0
  -24.8896   18.2552  -16.9565 C   0  0  0  0  0  0
  -26.0434   18.5726  -15.4456 C   0  0  0  0  0  0
  -26.5419   19.8109  -14.7931 N   0  0  0  0  0  0
  -26.3594   20.1646  -13.4429 C   0  0  0  0  0  0
  -26.9766   21.1743  -13.0573 O   0  0  0  0  0  0
  -25.5131   19.3382  -12.2977 C   0  0  0  0  0  0
  -24.0813   19.0759  -12.7692 C   0  0  0  0  0  0
  -22.9552   19.6267  -11.8729 C   0  0  0  0  0  0
  -23.3853   20.7761  -11.0382 N   0  0  0  0  0  0
  -24.3307   20.2510  -10.0508 C   0  0  0  0  0  0
  -25.4994   19.4359  -10.7398 C   0  0  0  0  0  0
  -22.6823   22.0287  -11.0874 C   0  0  0  0  0  0
  -23.0145   22.9043  -10.1366 N   0  0  0  0  0  0
  -22.3251   24.1286  -10.0425 C   0  0  0  0  0  0
  -21.3258   24.4377  -10.9062 C   0  0  0  0  0  0
  -20.5691   25.9232  -10.5432 S   0  0  0  0  0  0
  -21.5632   26.1576   -9.1602 C   0  0  0  0  0  0
  -22.5052   25.1443   -9.0426 C   0  0  0  0  0  0
  -20.9512   23.5788  -11.9933 C   0  0  0  0  0  0
  -20.1051   23.9104  -12.8242 O   0  0  0  0  0  0
  -21.6580   22.3341  -12.0555 N   0  3  0  0  0  0
  -21.3972   21.5637  -13.3344 C   0  0  0  0  0  0
  -19.9188   20.9680  -13.6558 C   0  0  0  0  0  0
  -18.9856   21.5740  -15.0400 C   0  0  0  0  0  0
  -17.8345   20.5153  -16.0883 C   0  0  0  0  0  0
  -17.6609   18.7774  -15.5294 C   0  0  0  0  0  0
  -16.6000   18.0433  -15.8660 F   0  0  0  0  0  0
  -18.6095   18.2781  -14.0636 C   0  0  0  0  0  0
  -19.6400   19.3780  -13.1618 C   0  0  0  0  0  0
  -27.1261   20.4671  -15.3117 H   0  0  0  0  0  0
  1  2  1  0  0  0
  2  3  1  0  0  0
  2  4  1  0  0  0
  4  5  1  0  0  0
  5  6  1  0  0  0
  6  7  1  0  0  0
  6 33  1  0  0  0
  7  8  2  0  0  0
  7  9  1  0  0  0
  9 10  1  0  0  0
  9 14  1  0  0  0
 10 11  1  0  0  0
 11 12  1  0  0  0
 12 13  1  0  0  0
 12 15  1  0  0  0
 13 14  1  0  0  0
 15 16  2  0  0  0
 15 24  1  0  0  0
 16 17  1  0  0  0
 17 18  2  0  0  0
 17 21  1  0  0  0
 18 19  1  0  0  0
 18 22  1  0  0  0
 19 20  1  0  0  0
 20 21  2  0  0  0
 22 23  2  0  0  0
 22 24  1  0  0  0
 24 25  1  0  0  0
 25 26  1  0  0  0
 26 27  2  0  0  0
 26 32  1  0  0  0
 27 28  1  0  0  0
 28 29  2  0  0  0
 29 30  1  0  0  0
 29 31  1  0  0  0
 31 32  2  0  0  0
M  END
>  <CHROM.0>
-179.72312355,-163.80193825,110.39100282,65.59814945,169.05361942,63.51758880
-157.94966928,-156.77069808

>  <CHROM.1>
-7.85513603,-174.08261018,-122.16712459,54.48506048,-169.06386203,-125.32237643
-115.25138600,-22.34920333,20.83158729,-13.13535548,1.80153286,-0.20815289
-2.40651674

>  <Name>
F3406-4716

>  <RI>
1.61324e+07

>  <Rbt.Current_Directory>
/home/adria/Escritorio/rDock_CMTR_LC/2pxcA_model/inputs_sah

>  <Rbt.Executable>
rbdock ($Id: //depot/dev/client3/rdock/2013.1/src/exe/rbdock.cxx#4 $)

>  <Rbt.Library>
libRbt.so (2013.1, Build901 2013/11/27)

>  <Rbt.Parameter_File>
/home/adria/Escritorio/rDock_2013.1_src/data/scripts/dock.prm

>  <Rbt.Receptor>
sah_rdock.prm

>  <SCORE>
-237.65

>  <SCORE.INTER>
-7.97097

>  <SCORE.INTER.CONST>
1

>  <SCORE.INTER.POLAR>
0

>  <SCORE.INTER.REPUL>
0.00757695

>  <SCORE.INTER.ROT>
7

>  <SCORE.INTER.VDW>
-20.4089

>  <SCORE.INTER.norm>
-0.249093

>  <SCORE.INTRA>
-230.119

>  <SCORE.INTRA.DIHEDRAL>
-6.44955

>  <SCORE.INTRA.DIHEDRAL.0>
14.6111

>  <SCORE.INTRA.POLAR>
0

>  <SCORE.INTRA.POLAR.0>
0

>  <SCORE.INTRA.REPUL>
0

>  <SCORE.INTRA.REPUL.0>
0

>  <SCORE.INTRA.VDW>
-226.894

>  <SCORE.INTRA.VDW.0>
225.973

>  <SCORE.INTRA.norm>
-7.19121

>  <SCORE.RESTR>
1.2061

>  <SCORE.RESTR.CAVITY>
1.2061

>  <SCORE.RESTR.norm>
0.0376908

>  <SCORE.SYSTEM>
-0.766337

>  <SCORE.SYSTEM.CONST>
0

>  <SCORE.SYSTEM.DIHEDRAL>
7.17508

>  <SCORE.SYSTEM.POLAR>
-4.18581

>  <SCORE.SYSTEM.VDW>
9.87789

>  <SCORE.SYSTEM.norm>
-0.023948

>  <SCORE.heavy>
32

>  <SCORE.norm>
-7.42656

$$$$
F3406-4716
  rDOCK(R)          3D
libRbt.so/2013.1/901 2013/11/27
 33 36  0  0  0  0  0  0  0  0999 V2000
  -17.6744   14.4719  -19.3917 C   0  0  0  0  0  0
  -16.3543   15.4351  -18.7046 C   0  0  0  0  0  0
  -15.0816   14.4194  -19.0432 C   0  0  0  0  0  0
  -16.5447   17.5149  -17.7818 C   0  0  0  0  0  0
  -18.1781   18.5369  -17.7359 C   0  0  0  0  0  0
  -18.4856   19.9404  -17.3573 N   0  0  0  0  0  0
  -19.1559   20.3540  -16.1907 C   0  0  0  0  0  0
  -19.4415   21.5638  -16.1277 O   0  0  0  0  0  0
  -19.6956   19.4059  -14.9576 C   0  0  0  0  0  0
  -18.7797   19.5326  -13.7386 C   0  0  0  0  0  0
  -19.4443   20.0042  -12.4307 C   0  0  0  0  0  0
  -20.6820   20.7912  -12.6577 N   0  0  0  0  0  0
  -21.6818   19.8626  -13.1894 C   0  0  0  0  0  0
  -21.1346   19.0769  -14.4496 C   0  0  0  0  0  0
  -20.8288   22.1116  -12.1094 C   0  0  0  0  0  0
  -19.7414   22.6022  -11.5109 N   0  0  0  0  0  0
  -19.7513   23.9203  -11.0154 C   0  0  0  0  0  0
  -20.8518   24.7045  -11.1334 C   0  0  0  0  0  0
  -20.6037   26.2899  -10.5537 S   0  0  0  0  0  0
  -18.9619   25.9542  -10.1695 C   0  0  0  0  0  0
  -18.6520   24.6230  -10.4140 C   0  0  0  0  0  0
  -22.0795   24.2314  -11.7069 C   0  0  0  0  0  0
  -23.0986   24.9223  -11.7264 O   0  0  0  0  0  0
  -22.0360   22.8930  -12.2163 N   0  3  0  0  0  0
  -23.4003   22.3575  -12.6025 C   0  0  0  0  0  0
  -24.6057   22.2979  -11.5129 C   0  0  0  0  0  0
  -25.8676   23.5474  -11.4973 C   0  0  0  0  0  0
  -26.7044   24.1904   -9.9380 C   0  0  0  0  0  0
  -26.1829   23.3654   -8.3855 C   0  0  0  0  0  0
  -26.9546   23.3815   -7.2984 F   0  0  0  0  0  0
  -24.9331   22.0549   -8.5212 C   0  0  0  0  0  0
  -24.2421   21.5367  -10.0505 C   0  0  0  0  0  0
  -18.2661   20.7059  -17.9951 H   0  0  0  0  0  0
  1  2  1  0  0  0
  2  3  1  0  0  0
  2  4  1  0  0  0
  4  5  1  0  0  0
  5  6  1  0  0  0
  6  7  1  0  0  0
  6 33  1  0  0  0
  7  8  2  0  0  0
  7  9  1  0  0  0
  9 10  1  0  0  0
  9 14  1  0  0  0
 10 11  1  0  0  0
 11 12  1  0  0  0
 12 13  1  0  0  0
 12 15  1  0  0  0
 13 14  1  0  0  0
 15 16  2  0  0  0
 15 24  1  0  0  0
 16 17  1  0  0  0
 17 18  2  0  0  0
 17 21  1  0  0  0
 18 19  1  0  0  0
 18 22  1  0  0  0
 19 20  1  0  0  0
 20 21  2  0  0  0
 22 23  2  0  0  0
 22 24  1  0  0  0
 24 25  1  0  0  0
 25 26  1  0  0  0
 26 27  2  0  0  0
 26 32  1  0  0  0
 27 28  1  0  0  0
 28 29  2  0  0  0
 29 30  1  0  0  0
 29 31  1  0  0  0
 31 32  2  0  0  0
M  END
>  <CHROM.0>
-61.47281724,-165.28876356,109.78081731,65.77317903,-29.65751721,64.40482122
-36.51919026,-162.68101036

>  <CHROM.1>
-3.98465753,-170.81738105,-107.55027811,104.43240515,6.11484712,111.35882978
100.13783807,-20.97510974,21.57033578,-12.95237989,0.96454192,-0.40857654
-2.56581743

>  <Name>
F3406-4716

>  <RI>
1.61324e+07

>  <Rbt.Current_Directory>
/home/adria/Escritorio/rDock_CMTR_LC/2pxcA_model/inputs_sah

>  <Rbt.Executable>
rbdock ($Id: //depot/dev/client3/rdock/2013.1/src/exe/rbdock.cxx#4 $)

>  <Rbt.Library>
libRbt.so (2013.1, Build901 2013/11/27)

>  <Rbt.Parameter_File>
/home/adria/Escritorio/rDock_2013.1_src/data/scripts/dock.prm

>  <Rbt.Receptor>
sah_rdock.prm

>  <SCORE>
-249.674

>  <SCORE.INTER>
-14.6163

>  <SCORE.INTER.CONST>
1

>  <SCORE.INTER.POLAR>
0

>  <SCORE.INTER.REPUL>
0.2295

>  <SCORE.INTER.ROT>
7

>  <SCORE.INTER.VDW>
-28.1638

>  <SCORE.INTER.norm>
-0.456759

>  <SCORE.INTRA>
-229.45

>  <SCORE.INTRA.DIHEDRAL>
-2.78876

>  <SCORE.INTRA.DIHEDRAL.0>
14.6111

>  <SCORE.INTRA.POLAR>
0

>  <SCORE.INTRA.POLAR.0>
0

>  <SCORE.INTRA.REPUL>
0

>  <SCORE.INTRA.REPUL.0>
0

>  <SCORE.INTRA.VDW>
-228.056

>  <SCORE.INTRA.VDW.0>
225.973

>  <SCORE.INTRA.norm>
-7.17032

>  <SCORE.RESTR>
0.495691

>  <SCORE.RESTR.CAVITY>
0.495691

>  <SCORE.RESTR.norm>
0.0154903

>  <SCORE.SYSTEM>
-6.1028

>  <SCORE.SYSTEM.CONST>
0

>  <SCORE.SYSTEM.DIHEDRAL>
9.87384

>  <SCORE.SYSTEM.POLAR>
-4.30753

>  <SCORE.SYSTEM.VDW>
3.60587

>  <SCORE.SYSTEM.norm>
-0.190713

>  <SCORE.heavy>
32

>  <SCORE.norm>
-7.8023

$$$$
F3406-4716
  rDOCK(R)          3D
libRbt.so/2013.1/901 2013/11/27
 33 36  0  0  0  0  0  0  0  0999 V2000
  -14.7310   14.6515  -18.8617 C   0  0  0  0  0  0
  -15.9366   15.7761  -18.2102 C   0  0  0  0  0  0
  -15.0502   17.1818  -18.2766 C   0  0  0  0  0  0
  -18.0837   15.2600  -17.6302 C   0  0  0  0  0  0
  -19.2031   16.3653  -16.5166 C   0  0  0  0  0  0
  -19.8993   17.6580  -16.7448 N   0  0  0  0  0  0
  -20.7825   18.2905  -15.8496 C   0  0  0  0  0  0
  -21.3720   19.2958  -16.2867 O   0  0  0  0  0  0
  -21.2013   17.7920  -14.3374 C   0  0  0  0  0  0
  -20.3649   18.5151  -13.2797 C   0  0  0  0  0  0
  -21.1468   19.3195  -12.2231 C   0  0  0  0  0  0
  -22.4894   19.7448  -12.6915 N   0  0  0  0  0  0
  -23.2996   18.5307  -12.8106 C   0  0  0  0  0  0
  -22.5827   17.4375  -13.7027 C   0  0  0  0  0  0
  -22.8749   21.1291  -12.6703 C   0  0  0  0  0  0
  -21.9538   21.9680  -12.1914 N   0  0  0  0  0  0
  -22.1970   23.3549  -12.2059 C   0  0  0  0  0  0
  -23.3570   23.8574  -12.6978 C   0  0  0  0  0  0
  -23.3918   25.5632  -12.7065 S   0  0  0  0  0  0
  -21.7939   25.6564  -12.0792 C   0  0  0  0  0  0
  -21.2907   24.3929  -11.7994 C   0  0  0  0  0  0
  -24.4216   23.0200  -13.1726 C   0  0  0  0  0  0
  -25.5043   23.4833  -13.5321 O   0  0  0  0  0  0
  -24.1409   21.6151  -13.1607 N   0  3  0  0  0  0
  -25.3590   20.7614  -13.4516 C   0  0  0  0  0  0
  -25.8044   20.4483  -14.9837 C   0  0  0  0  0  0
  -25.0857   19.0874  -15.8698 C   0  0  0  0  0  0
  -24.7270   19.0961  -17.7181 C   0  0  0  0  0  0
  -25.2564   20.6141  -18.6003 C   0  0  0  0  0  0
  -25.4770   20.6109  -19.9152 F   0  0  0  0  0  0
  -26.0407   21.9188  -17.6101 C   0  0  0  0  0  0
  -26.3336   21.7745  -15.8844 C   0  0  0  0  0  0
  -19.8100   18.1403  -17.6394 H   0  0  0  0  0  0
  1  2  1  0  0  0
  2  3  1  0  0  0
  2  4  1  0  0  0
  4  5  1  0  0  0
  5  6  1  0  0  0
  6  7  1  0  0  0
  6 33  1  0  0  0
  7  8  2  0  0  0
  7  9  1  0  0  0
  9 10  1  0  0  0
  9 14  1  0  0  0
 10 11  1  0  0  0
 11 12  1  0  0  0
 12 13  1  0  0  0
 12 15  1  0  0  0
 13 14  1  0  0  0
 15 16  2  0  0  0
 15 24  1  0  0  0
 16 17  1  0  0  0
 17 18  2  0  0  0
 17 21  1  0  0  0
 18 19  1  0  0  0
 18 22  1  0  0  0
 19 20  1  0  0  0
 20 21  2  0  0  0
 22 23  2  0  0  0
 22 24  1  0  0  0
 24 25  1  0  0  0
 25 26  1  0  0  0
 26 27  2  0  0  0
 26 32  1  0  0  0
 27 28  1  0  0  0
 28 29  2  0  0  0
 29 30  1  0  0  0
 29 31  1  0  0  0
 31 32  2  0  0  0
M  END
>  <CHROM.0>
-175.25329587,67.47068107,76.39355199,62.51942519,169.04246501,-178.15065736
82.74141655,-45.15996581

>  <CHROM.1>
163.23615650,72.71985791,174.32649816,97.31587490,-0.79448223,-106.59894546
85.67017503,-22.22739036,20.28488914,-14.92592588,-0.82903950,-0.39792181
0.86735914

>  <Name>
F3406-4716

>  <RI>
1.61324e+07

>  <Rbt.Current_Directory>
/home/adria/Escritorio/rDock_CMTR_LC/2pxcA_model/inputs_sah

>  <Rbt.Executable>
rbdock ($Id: //depot/dev/client3/rdock/2013.1/src/exe/rbdock.cxx#4 $)

>  <Rbt.Library>
libRbt.so (2013.1, Build901 2013/11/27)

>  <Rbt.Parameter_File>
/home/adria/Escritorio/rDock_2013.1_src/data/scripts/dock.prm

>  <Rbt.Receptor>
sah_rdock.prm

>  <SCORE>
-241.561

>  <SCORE.INTER>
-14.1024

>  <SCORE.INTER.CONST>
1

>  <SCORE.INTER.POLAR>
-0.994959

>  <SCORE.INTER.REPUL>
0.659269

>  <SCORE.INTER.ROT>
7

>  <SCORE.INTER.VDW>
-26.4159

>  <SCORE.INTER.norm>
-0.440701

>  <SCORE.INTRA>
-227.786

>  <SCORE.INTRA.DIHEDRAL>
1.65685

>  <SCORE.INTRA.DIHEDRAL.0>
14.6111

>  <SCORE.INTRA.POLAR>
0

>  <SCORE.INTRA.POLAR.0>
0

>  <SCORE.INTRA.REPUL>
0

>  <SCORE.INTRA.REPUL.0>
0

>  <SCORE.INTRA.VDW>
-228.615

>  <SCORE.INTRA.VDW.0>
225.973

>  <SCORE.INTRA.norm>
-7.11832

>  <SCORE.RESTR>
0

>  <SCORE.RESTR.CAVITY>
0

>  <SCORE.RESTR.norm>
0

>  <SCORE.SYSTEM>
0.327697

>  <SCORE.SYSTEM.CONST>
0

>  <SCORE.SYSTEM.DIHEDRAL>
5.16574

>  <SCORE.SYSTEM.POLAR>
-3.24674

>  <SCORE.SYSTEM.REPUL>
0.0241058

>  <SCORE.SYSTEM.VDW>
8.6632

>  <SCORE.SYSTEM.norm>
0.0102405

>  <SCORE.heavy>
32

>  <SCORE.norm>
-7.54878

$$$$
F3406-4716
  rDOCK(R)          3D
libRbt.so/2013.1/901 2013/11/27
 33 36  0  0  0  0  0  0  0  0999 V2000
  -16.2049   12.5206  -16.6333 C   0  0  0  0  0  0
  -17.2913   13.7577  -15.9762 C   0  0  0  0  0  0
  -18.2514   12.7883  -15.0249 C   0  0  0  0  0  0
  -17.1552   16.0056  -16.3521 C   0  0  0  0  0  0
  -18.5572   17.0596  -17.1513 C   0  0  0  0  0  0
  -18.7644   18.5230  -17.3028 N   0  0  0  0  0  0
  -18.8070   19.4644  -16.2571 C   0  0  0  0  0  0
  -19.1334   20.6213  -16.5801 O   0  0  0  0  0  0
  -18.5799   19.1860  -14.6504 C   0  0  0  0  0  0
  -18.5391   20.5041  -13.8746 C   0  0  0  0  0  0
  -19.5803   20.6677  -12.7504 C   0  0  0  0  0  0
  -20.7875   19.8271  -12.9483 N   0  0  0  0  0  0
  -20.3667   18.4354  -12.7732 C   0  0  0  0  0  0
  -19.1315   18.0800  -13.6967 C   0  0  0  0  0  0
  -22.0998   20.4127  -12.9704 C   0  0  0  0  0  0
  -23.1103   19.5457  -12.8786 N   0  0  0  0  0  0
  -24.4339   20.0206  -12.8049 C   0  0  0  0  0  0
  -24.7032   21.3500  -12.8279 C   0  0  0  0  0  0
  -26.3618   21.6959  -12.6269 S   0  0  0  0  0  0
  -26.7475   20.0295  -12.4544 C   0  0  0  0  0  0
  -25.6233   19.2339  -12.6312 C   0  0  0  0  0  0
  -23.6791   22.3428  -12.9875 C   0  0  0  0  0  0
  -23.9439   23.5403  -13.0980 O   0  0  0  0  0  0
  -22.3416   21.8324  -13.0443 N   0  3  0  0  0  0
  -21.3197   22.8804  -13.4375 C   0  0  0  0  0  0
  -21.0174   24.1483  -12.4655 C   0  0  0  0  0  0
  -20.1277   23.9245  -10.9448 C   0  0  0  0  0  0
  -20.4583   24.9007   -9.3691 C   0  0  0  0  0  0
  -21.7424   26.2008   -9.5212 C   0  0  0  0  0  0
  -21.7885   27.2323   -8.6777 F   0  0  0  0  0  0
  -22.5450   26.3896  -11.1392 C   0  0  0  0  0  0
  -22.1271   25.4182  -12.5416 C   0  0  0  0  0  0
  -18.9586   18.9235  -18.2209 H   0  0  0  0  0  0
  1  2  1  0  0  0
  2  3  1  0  0  0
  2  4  1  0  0  0
  4  5  1  0  0  0
  5  6  1  0  0  0
  6  7  1  0  0  0
  6 33  1  0  0  0
  7  8  2  0  0  0
  7  9  1  0  0  0
  9 10  1  0  0  0
  9 14  1  0  0  0
 10 11  1  0  0  0
 11 12  1  0  0  0
 12 13  1  0  0  0
 12 15  1  0  0  0
 13 14  1  0  0  0
 15 16  2  0  0  0
 15 24  1  0  0  0
 16 17  1  0  0  0
 17 18  2  0  0  0
 17 21  1  0  0  0
 18 19  1  0  0  0
 18 22  1  0  0  0
 19 20  1  0  0  0
 20 21  2  0  0  0
 22 23  2  0  0  0
 22 24  1  0  0  0
 24 25  1  0  0  0
 25 26  1  0  0  0
 26 27  2  0  0  0
 26 32  1  0  0  0
 27 28  1  0  0  0
 28 29  2  0  0  0
 29 30  1  0  0  0
 29 31  1  0  0  0
 31 32  2  0  0  0
M  END
>  <CHROM.0>
-61.07408634,68.11371998,74.09264440,63.50717937,-28.94134211,62.17023049
-156.62872792,-159.46574168

>  <CHROM.1>
120.78252477,169.47070454,-57.15000062,173.02151161,-166.81741614,-125.81377324
71.96021803,-21.25179851,20.60856609,-13.37326552,-1.08504748,0.12749571
0.43126364

>  <Name>
F3406-4716

>  <RI>
1.61324e+07

>  <Rbt.Current_Directory>
/home/adria/Escritorio/rDock_CMTR_LC/2pxcA_model/inputs_sah

>  <Rbt.Executable>
rbdock ($Id: //depot/dev/client3/rdock/2013.1/src/exe/rbdock.cxx#4 $)

>  <Rbt.Library>
libRbt.so (2013.1, Build901 2013/11/27)

>  <Rbt.Parameter_File>
/home/adria/Escritorio/rDock_2013.1_src/data/scripts/dock.prm

>  <Rbt.Receptor>
sah_rdock.prm

>  <SCORE>
-248.247

>  <SCORE.INTER>
-12.0163

>  <SCORE.INTER.CONST>
1

>  <SCORE.INTER.POLAR>
-0.510723

>  <SCORE.INTER.REPUL>
0.130057

>  <SCORE.INTER.ROT>
7

>  <SCORE.INTER.VDW>
-23.3302

>  <SCORE.INTER.norm>
-0.37551

>  <SCORE.INTRA>
-228.735

>  <SCORE.INTRA.DIHEDRAL>
-5.09002

>  <SCORE.INTRA.DIHEDRAL.0>
14.6111

>  <SCORE.INTRA.POLAR>
0

>  <SCORE.INTRA.POLAR.0>
0

>  <SCORE.INTRA.REPUL>
0

>  <SCORE.INTRA.REPUL.0>
0

>  <SCORE.INTRA.VDW>
-226.189

>  <SCORE.INTRA.VDW.0>
225.973

>  <SCORE.INTRA.norm>
-7.14795

>  <SCORE.RESTR>
0

>  <SCORE.RESTR.CAVITY>
0

>  <SCORE.RESTR.norm>
0

>  <SCORE.SYSTEM>
-7.49635

>  <SCORE.SYSTEM.CONST>
0

>  <SCORE.SYSTEM.DIHEDRAL>
6.44407

>  <SCORE.SYSTEM.POLAR>
-3.84583

>  <SCORE.SYSTEM.VDW>
2.35742

>  <SCORE.SYSTEM.norm>
-0.234261

>  <SCORE.heavy>
32

>  <SCORE.norm>
-7.75772

$$$$
