F6279-0336
  rDOCK(R)          3D
libRbt.so/2013.1/901 2013/11/27
 29 32  0  0  0  0  0  0  0  0999 V2000
  -21.2667   20.4384  -11.0681 C   0  0  0  0  0  0
  -20.6465   21.2836  -12.0603 N   0  0  0  0  0  0
  -19.5810   20.7499  -12.6521 N   0  0  0  0  0  0
  -19.6913   21.1630  -13.9178 C   0  0  0  0  0  0
  -20.5523   22.2777  -13.9751 C   0  0  0  0  0  0
  -21.1045   22.4060  -12.7071 C   0  0  0  0  0  0
  -22.0543   23.4243  -12.3349 C   0  0  0  0  0  0
  -21.6979   24.6015  -12.2436 O   0  0  0  0  0  0
  -23.3584   23.0866  -12.0382 N   0  0  0  0  0  0
  -23.9195   21.7209  -11.8895 C   0  0  0  0  0  0
  -23.9158   20.9261  -13.2147 C   0  0  0  0  0  0
  -23.9560   19.3272  -13.2263 C   0  0  0  0  0  0
  -22.5117   18.4209  -13.7591 C   0  0  0  0  0  0
  -22.7142   16.5831  -13.5731 C   0  0  0  0  0  0
  -24.0780   16.0034  -12.9937 C   0  0  0  0  0  0
  -25.6419   17.5329  -12.4563 S   0  0  0  0  0  0
  -24.2386   24.2067  -11.7433 C   0  0  0  0  0  0
  -24.5763   24.0179  -10.3530 C   0  0  0  0  0  0
  -25.9172   23.8009   -9.5253 C   0  0  0  0  0  0
  -25.4905   23.4669   -7.7287 C   0  0  0  0  0  0
  -23.4871   23.4068   -7.6371 C   0  0  0  0  0  0
  -23.1075   23.7288   -9.4008 O   0  0  0  0  0  0
  -18.9772   20.4539  -14.9617 C   0  0  0  0  0  0
  -19.1845   20.8350  -16.3013 C   0  0  0  0  0  0
  -18.5646   20.1516  -17.3376 C   0  0  0  0  0  0
  -17.7176   19.0984  -17.0312 C   0  0  0  0  0  0
  -17.1509   18.4060  -18.0261 F   0  0  0  0  0  0
  -17.4513   18.7446  -15.7107 C   0  0  0  0  0  0
  -18.0735   19.4302  -14.6679 C   0  0  0  0  0  0
  1  2  1  0  0  0
  2  3  1  0  0  0
  2  6  1  0  0  0
  3  4  2  0  0  0
  4  5  1  0  0  0
  4 23  1  0  0  0
  5  6  2  0  0  0
  6  7  1  0  0  0
  7  8  2  0  0  0
  7  9  1  0  0  0
  9 10  1  0  0  0
  9 17  1  0  0  0
 10 11  1  0  0  0
 11 12  1  0  0  0
 12 13  2  0  0  0
 12 16  1  0  0  0
 13 14  1  0  0  0
 14 15  2  0  0  0
 15 16  1  0  0  0
 17 18  1  0  0  0
 18 19  2  0  0  0
 18 22  1  0  0  0
 19 20  1  0  0  0
 20 21  2  0  0  0
 21 22  1  0  0  0
 23 24  2  0  0  0
 23 29  1  0  0  0
 24 25  1  0  0  0
 25 26  2  0  0  0
 26 27  1  0  0  0
 26 28  1  0  0  0
 28 29  2  0  0  0
M  END
>  <CHROM.0>
-61.78007577,65.52953943,75.36906151,-63.50910422,167.90228393,-54.99246931
-36.80775476,-162.00571467

>  <CHROM.1>
175.11832173,118.98348220,-66.37875824,-114.16310052,157.50044384,-110.77365400
-120.22806868,-21.89008902,20.87374922,-12.90907079,-2.42255751,-0.57132786
-2.67413967

>  <Name>
F6279-0336

>  <RI>
2.9256e+07

>  <Rbt.Current_Directory>
/home/adria/Escritorio/rDock_CMTR_LC/2pxcA_model/inputs_sah

>  <Rbt.Executable>
rbdock ($Id: //depot/dev/client3/rdock/2013.1/src/exe/rbdock.cxx#4 $)

>  <Rbt.Library>
libRbt.so (2013.1, Build901 2013/11/27)

>  <Rbt.Parameter_File>
/home/adria/Escritorio/rDock_2013.1_src/data/scripts/dock.prm

>  <Rbt.Receptor>
sah_rdock.prm

>  <SCORE>
-299.581

>  <SCORE.INTER>
-5.46087

>  <SCORE.INTER.CONST>
1

>  <SCORE.INTER.POLAR>
0

>  <SCORE.INTER.REPUL>
0.236867

>  <SCORE.INTER.ROT>
7

>  <SCORE.INTER.VDW>
-19.0452

>  <SCORE.INTER.norm>
-0.188306

>  <SCORE.INTRA>
-291.85

>  <SCORE.INTRA.DIHEDRAL>
5.92172

>  <SCORE.INTRA.DIHEDRAL.0>
7.9439

>  <SCORE.INTRA.POLAR>
0

>  <SCORE.INTRA.POLAR.0>
0

>  <SCORE.INTRA.REPUL>
0

>  <SCORE.INTRA.REPUL.0>
0

>  <SCORE.INTRA.VDW>
-294.811

>  <SCORE.INTRA.VDW.0>
292.635

>  <SCORE.INTRA.norm>
-10.0638

>  <SCORE.RESTR>
0

>  <SCORE.RESTR.CAVITY>
0

>  <SCORE.RESTR.norm>
0

>  <SCORE.SYSTEM>
-2.2704

>  <SCORE.SYSTEM.CONST>
0

>  <SCORE.SYSTEM.DIHEDRAL>
3.16841

>  <SCORE.SYSTEM.POLAR>
-3.68313

>  <SCORE.SYSTEM.VDW>
8.66802

>  <SCORE.SYSTEM.norm>
-0.0782898

>  <SCORE.heavy>
29

>  <SCORE.norm>
-10.3304

$$$$
F6279-0336
  rDOCK(R)          3D
libRbt.so/2013.1/901 2013/11/27
 29 32  0  0  0  0  0  0  0  0999 V2000
  -18.1615   20.1971  -12.5607 C   0  0  0  0  0  0
  -19.2976   20.8947  -13.1142 N   0  0  0  0  0  0
  -20.0138   21.5769  -12.2242 N   0  0  0  0  0  0
  -20.3639   22.6808  -12.8902 C   0  0  0  0  0  0
  -20.2377   22.4538  -14.2757 C   0  0  0  0  0  0
  -19.6170   21.2186  -14.4107 C   0  0  0  0  0  0
  -19.2893   20.6090  -15.6751 C   0  0  0  0  0  0
  -19.2550   21.2909  -16.7022 O   0  0  0  0  0  0
  -19.0517   19.2525  -15.7545 N   0  0  0  0  0  0
  -19.2477   18.2435  -14.6843 C   0  0  0  0  0  0
  -20.4035   17.2646  -14.9908 C   0  0  0  0  0  0
  -21.8347   17.7916  -15.4728 C   0  0  0  0  0  0
  -23.2173   17.7211  -14.3437 C   0  0  0  0  0  0
  -24.7514   18.5005  -15.0452 C   0  0  0  0  0  0
  -24.7102   19.1244  -16.5083 C   0  0  0  0  0  0
  -22.7340   18.9781  -17.5795 S   0  0  0  0  0  0
  -18.6641   18.7656  -17.0695 C   0  0  0  0  0  0
  -17.2415   19.0041  -17.1155 C   0  0  0  0  0  0
  -16.2065   19.8852  -16.2893 C   0  0  0  0  0  0
  -14.4649   19.5158  -16.8824 C   0  0  0  0  0  0
  -14.6423   18.0556  -18.2469 C   0  0  0  0  0  0
  -16.4624   17.8453  -18.2099 O   0  0  0  0  0  0
  -20.7765   23.8570  -12.1493 C   0  0  0  0  0  0
  -20.2677   24.0508  -10.8507 C   0  0  0  0  0  0
  -20.6744   25.1329  -10.0833 C   0  0  0  0  0  0
  -21.5755   26.0355  -10.6254 C   0  0  0  0  0  0
  -22.0068   27.0568   -9.8762 F   0  0  0  0  0  0
  -22.0439   25.8957  -11.9296 C   0  0  0  0  0  0
  -21.6363   24.8088  -12.7023 C   0  0  0  0  0  0
  1  2  1  0  0  0
  2  3  1  0  0  0
  2  6  1  0  0  0
  3  4  2  0  0  0
  4  5  1  0  0  0
  4 23  1  0  0  0
  5  6  2  0  0  0
  6  7  1  0  0  0
  7  8  2  0  0  0
  7  9  1  0  0  0
  9 10  1  0  0  0
  9 17  1  0  0  0
 10 11  1  0  0  0
 11 12  1  0  0  0
 12 13  2  0  0  0
 12 16  1  0  0  0
 13 14  1  0  0  0
 14 15  2  0  0  0
 15 16  1  0  0  0
 17 18  1  0  0  0
 18 19  2  0  0  0
 18 22  1  0  0  0
 19 20  1  0  0  0
 20 21  2  0  0  0
 21 22  1  0  0  0
 23 24  2  0  0  0
 23 29  1  0  0  0
 24 25  1  0  0  0
 25 26  2  0  0  0
 26 27  1  0  0  0
 26 28  1  0  0  0
 28 29  2  0  0  0
M  END
>  <CHROM.0>
177.48562516,62.41113170,-9.52962153,62.58213940,169.00816984,-177.37714047
-158.74440259,-168.54556482

>  <CHROM.1>
27.86471401,-153.40239670,111.71929803,84.00768468,-48.27067888,-107.49833616
-16.31458235,-20.06979399,20.89361845,-14.54799807,-1.89822169,-0.10795397
-2.45588023

>  <Name>
F6279-0336

>  <RI>
2.9256e+07

>  <Rbt.Current_Directory>
/home/adria/Escritorio/rDock_CMTR_LC/2pxcA_model/inputs_sah

>  <Rbt.Executable>
rbdock ($Id: //depot/dev/client3/rdock/2013.1/src/exe/rbdock.cxx#4 $)

>  <Rbt.Library>
libRbt.so (2013.1, Build901 2013/11/27)

>  <Rbt.Parameter_File>
/home/adria/Escritorio/rDock_2013.1_src/data/scripts/dock.prm

>  <Rbt.Receptor>
sah_rdock.prm

>  <SCORE>
-311.8

>  <SCORE.INTER>
-15.7438

>  <SCORE.INTER.CONST>
1

>  <SCORE.INTER.POLAR>
0

>  <SCORE.INTER.REPUL>
0

>  <SCORE.INTER.ROT>
7

>  <SCORE.INTER.VDW>
-28.1438

>  <SCORE.INTER.norm>
-0.542889

>  <SCORE.INTRA>
-294.372

>  <SCORE.INTRA.DIHEDRAL>
0.574179

>  <SCORE.INTRA.DIHEDRAL.0>
7.9439

>  <SCORE.INTRA.POLAR>
0

>  <SCORE.INTRA.POLAR.0>
0

>  <SCORE.INTRA.REPUL>
0

>  <SCORE.INTRA.REPUL.0>
0

>  <SCORE.INTRA.VDW>
-294.659

>  <SCORE.INTRA.VDW.0>
292.635

>  <SCORE.INTRA.norm>
-10.1508

>  <SCORE.RESTR>
0

>  <SCORE.RESTR.CAVITY>
0

>  <SCORE.RESTR.norm>
0

>  <SCORE.SYSTEM>
-1.68471

>  <SCORE.SYSTEM.CONST>
0

>  <SCORE.SYSTEM.DIHEDRAL>
5.26381

>  <SCORE.SYSTEM.POLAR>
-4.12621

>  <SCORE.SYSTEM.VDW>
9.71251

>  <SCORE.SYSTEM.norm>
-0.0580936

>  <SCORE.heavy>
29

>  <SCORE.norm>
-10.7517

$$$$
F6279-0336
  rDOCK(R)          3D
libRbt.so/2013.1/901 2013/11/27
 29 32  0  0  0  0  0  0  0  0999 V2000
  -19.2975   18.4793  -13.3966 C   0  0  0  0  0  0
  -19.7308   19.7316  -13.9689 N   0  0  0  0  0  0
  -20.7116   20.3337  -13.3012 N   0  0  0  0  0  0
  -20.3965   21.6289  -13.3905 C   0  0  0  0  0  0
  -19.4994   21.8217  -14.4606 C   0  0  0  0  0  0
  -19.1421   20.5532  -14.8996 C   0  0  0  0  0  0
  -18.2256   20.2976  -15.9823 C   0  0  0  0  0  0
  -17.3529   21.1222  -16.2642 O   0  0  0  0  0  0
  -18.3419   19.1494  -16.7380 N   0  0  0  0  0  0
  -19.4389   18.1513  -16.6898 C   0  0  0  0  0  0
  -20.8398   18.8034  -16.6851 C   0  0  0  0  0  0
  -22.1436   17.9717  -16.2766 C   0  0  0  0  0  0
  -22.5199   17.7309  -14.5469 C   0  0  0  0  0  0
  -24.1392   16.8580  -14.2842 C   0  0  0  0  0  0
  -25.0026   16.4192  -15.5466 C   0  0  0  0  0  0
  -24.1238   16.9265  -17.5577 S   0  0  0  0  0  0
  -17.3191   18.9700  -17.7569 C   0  0  0  0  0  0
  -16.7619   17.6732  -17.4557 C   0  0  0  0  0  0
  -16.7438   16.2486  -18.1630 C   0  0  0  0  0  0
  -15.6409   15.0853  -17.1874 C   0  0  0  0  0  0
  -14.8464   16.1847  -15.7091 C   0  0  0  0  0  0
  -15.6413   17.7924  -16.0855 O   0  0  0  0  0  0
  -20.9676   22.5663  -12.4430 C   0  0  0  0  0  0
  -21.9041   22.0924  -11.5042 C   0  0  0  0  0  0
  -22.5170   22.9612  -10.6127 C   0  0  0  0  0  0
  -22.1752   24.3038  -10.6459 C   0  0  0  0  0  0
  -22.7940   25.1554   -9.8200 F   0  0  0  0  0  0
  -21.2068   24.7825  -11.5252 C   0  0  0  0  0  0
  -20.5898   23.9108  -12.4220 C   0  0  0  0  0  0
  1  2  1  0  0  0
  2  3  1  0  0  0
  2  6  1  0  0  0
  3  4  2  0  0  0
  4  5  1  0  0  0
  4 23  1  0  0  0
  5  6  2  0  0  0
  6  7  1  0  0  0
  7  8  2  0  0  0
  7  9  1  0  0  0
  9 10  1  0  0  0
  9 17  1  0  0  0
 10 11  1  0  0  0
 11 12  1  0  0  0
 12 13  2  0  0  0
 12 16  1  0  0  0
 13 14  1  0  0  0
 14 15  2  0  0  0
 15 16  1  0  0  0
 17 18  1  0  0  0
 18 19  2  0  0  0
 18 22  1  0  0  0
 19 20  1  0  0  0
 20 21  2  0  0  0
 21 22  1  0  0  0
 23 24  2  0  0  0
 23 29  1  0  0  0
 24 25  1  0  0  0
 25 26  2  0  0  0
 26 27  1  0  0  0
 26 28  1  0  0  0
 28 29  2  0  0  0
M  END
>  <CHROM.0>
-62.58391108,66.48964618,-126.65592234,66.56447940,168.09853732,-57.71562729
-35.95739227,-160.90996002

>  <CHROM.1>
-3.80878563,-144.37751895,46.03361891,124.70371505,-164.65432811,80.93254736
112.61956457,-20.17014765,19.69260886,-14.76704182,-1.12508069,0.14686502
0.65611803

>  <Name>
F6279-0336

>  <RI>
2.9256e+07

>  <Rbt.Current_Directory>
/home/adria/Escritorio/rDock_CMTR_LC/2pxcA_model/inputs_sah

>  <Rbt.Executable>
rbdock ($Id: //depot/dev/client3/rdock/2013.1/src/exe/rbdock.cxx#4 $)

>  <Rbt.Library>
libRbt.so (2013.1, Build901 2013/11/27)

>  <Rbt.Parameter_File>
/home/adria/Escritorio/rDock_2013.1_src/data/scripts/dock.prm

>  <Rbt.Receptor>
sah_rdock.prm

>  <SCORE>
-304.018

>  <SCORE.INTER>
-8.35998

>  <SCORE.INTER.CONST>
1

>  <SCORE.INTER.POLAR>
0

>  <SCORE.INTER.REPUL>
0

>  <SCORE.INTER.ROT>
7

>  <SCORE.INTER.VDW>
-20.76

>  <SCORE.INTER.norm>
-0.288275

>  <SCORE.INTRA>
-293.888

>  <SCORE.INTRA.DIHEDRAL>
1.27821

>  <SCORE.INTRA.DIHEDRAL.0>
7.9439

>  <SCORE.INTRA.POLAR>
0

>  <SCORE.INTRA.POLAR.0>
0

>  <SCORE.INTRA.REPUL>
0

>  <SCORE.INTRA.REPUL.0>
0

>  <SCORE.INTRA.VDW>
-294.527

>  <SCORE.INTRA.VDW.0>
292.635

>  <SCORE.INTRA.norm>
-10.1341

>  <SCORE.RESTR>
0

>  <SCORE.RESTR.CAVITY>
0

>  <SCORE.RESTR.norm>
0

>  <SCORE.SYSTEM>
-1.77079

>  <SCORE.SYSTEM.CONST>
0

>  <SCORE.SYSTEM.DIHEDRAL>
6.39196

>  <SCORE.SYSTEM.POLAR>
-4.15594

>  <SCORE.SYSTEM.VDW>
9.16344

>  <SCORE.SYSTEM.norm>
-0.0610618

>  <SCORE.heavy>
29

>  <SCORE.norm>
-10.4834

$$$$
F6279-0336
  rDOCK(R)          3D
libRbt.so/2013.1/901 2013/11/27
 29 32  0  0  0  0  0  0  0  0999 V2000
  -21.0758   19.4263  -11.7716 C   0  0  0  0  0  0
  -20.3988   20.2989  -12.7010 N   0  0  0  0  0  0
  -19.3176   19.7696  -13.2677 N   0  0  0  0  0  0
  -19.3655   20.2348  -14.5191 C   0  0  0  0  0  0
  -20.2044   21.3667  -14.5680 C   0  0  0  0  0  0
  -20.8092   21.4545  -13.3207 C   0  0  0  0  0  0
  -21.7573   22.4744  -12.9486 C   0  0  0  0  0  0
  -21.3929   23.6468  -12.8310 O   0  0  0  0  0  0
  -23.0693   22.1429  -12.6812 N   0  0  0  0  0  0
  -23.6443   20.7798  -12.5658 C   0  0  0  0  0  0
  -24.5724   20.4211  -13.7481 C   0  0  0  0  0  0
  -24.0929   19.4360  -14.9134 C   0  0  0  0  0  0
  -25.2948   18.3934  -15.7258 C   0  0  0  0  0  0
  -24.5639   17.4260  -17.1340 C   0  0  0  0  0  0
  -23.0189   17.5929  -17.4760 C   0  0  0  0  0  0
  -21.8757   19.0258  -16.1667 S   0  0  0  0  0  0
  -23.9455   23.2655  -12.3834 C   0  0  0  0  0  0
  -23.7934   23.4482  -10.9600 C   0  0  0  0  0  0
  -24.3386   22.7233   -9.6533 C   0  0  0  0  0  0
  -23.5316   23.4834   -8.1393 C   0  0  0  0  0  0
  -22.2137   24.8289   -8.8307 C   0  0  0  0  0  0
  -22.5002   24.6166  -10.6283 O   0  0  0  0  0  0
  -18.6184   19.5549  -15.5593 C   0  0  0  0  0  0
  -17.8157   18.4535  -15.2051 C   0  0  0  0  0  0
  -17.0418   17.8043  -16.1563 C   0  0  0  0  0  0
  -17.0885   18.2444  -17.4695 C   0  0  0  0  0  0
  -16.3117   17.6526  -18.3842 F   0  0  0  0  0  0
  -17.9220   19.2926  -17.8522 C   0  0  0  0  0  0
  -18.7005   19.9463  -16.8976 C   0  0  0  0  0  0
  1  2  1  0  0  0
  2  3  1  0  0  0
  2  6  1  0  0  0
  3  4  2  0  0  0
  4  5  1  0  0  0
  4 23  1  0  0  0
  5  6  2  0  0  0
  6  7  1  0  0  0
  7  8  2  0  0  0
  7  9  1  0  0  0
  9 10  1  0  0  0
  9 17  1  0  0  0
 10 11  1  0  0  0
 11 12  1  0  0  0
 12 13  2  0  0  0
 12 16  1  0  0  0
 13 14  1  0  0  0
 14 15  2  0  0  0
 15 16  1  0  0  0
 17 18  1  0  0  0
 18 19  2  0  0  0
 18 22  1  0  0  0
 19 20  1  0  0  0
 20 21  2  0  0  0
 21 22  1  0  0  0
 23 24  2  0  0  0
 23 29  1  0  0  0
 24 25  1  0  0  0
 25 26  2  0  0  0
 26 27  1  0  0  0
 26 28  1  0  0  0
 28 29  2  0  0  0
M  END
>  <CHROM.0>
-177.06290810,-73.85603340,-47.25204293,65.17083322,-30.63626941,-56.54679403
-35.69332939,-157.04544364

>  <CHROM.1>
-2.70602151,121.02632507,-109.49480621,-87.36689657,104.09651780,148.19334928
-77.54763216,-21.30697878,20.52914649,-14.05132666,-2.09866756,-0.07763645
-2.26677166

>  <Name>
F6279-0336

>  <RI>
2.9256e+07

>  <Rbt.Current_Directory>
/home/adria/Escritorio/rDock_CMTR_LC/2pxcA_model/inputs_sah

>  <Rbt.Executable>
rbdock ($Id: //depot/dev/client3/rdock/2013.1/src/exe/rbdock.cxx#4 $)

>  <Rbt.Library>
libRbt.so (2013.1, Build901 2013/11/27)

>  <Rbt.Parameter_File>
/home/adria/Escritorio/rDock_2013.1_src/data/scripts/dock.prm

>  <Rbt.Receptor>
sah_rdock.prm

>  <SCORE>
-304.253

>  <SCORE.INTER>
-7.01854

>  <SCORE.INTER.CONST>
1

>  <SCORE.INTER.POLAR>
0

>  <SCORE.INTER.REPUL>
0

>  <SCORE.INTER.ROT>
7

>  <SCORE.INTER.VDW>
-19.4185

>  <SCORE.INTER.norm>
-0.242019

>  <SCORE.INTRA>
-290.107

>  <SCORE.INTRA.DIHEDRAL>
10.8081

>  <SCORE.INTRA.DIHEDRAL.0>
7.9439

>  <SCORE.INTRA.POLAR>
0

>  <SCORE.INTRA.POLAR.0>
0

>  <SCORE.INTRA.REPUL>
0

>  <SCORE.INTRA.REPUL.0>
0

>  <SCORE.INTRA.VDW>
-295.511

>  <SCORE.INTRA.VDW.0>
292.635

>  <SCORE.INTRA.norm>
-10.0037

>  <SCORE.RESTR>
0

>  <SCORE.RESTR.CAVITY>
0

>  <SCORE.RESTR.norm>
0

>  <SCORE.SYSTEM>
-7.12751

>  <SCORE.SYSTEM.CONST>
0

>  <SCORE.SYSTEM.DIHEDRAL>
6.9778

>  <SCORE.SYSTEM.POLAR>
-4.02687

>  <SCORE.SYSTEM.REPUL>
0.0400283

>  <SCORE.SYSTEM.VDW>
2.8748

>  <SCORE.SYSTEM.norm>
-0.245776

>  <SCORE.heavy>
29

>  <SCORE.norm>
-10.4915

$$$$
F6279-0336
  rDOCK(R)          3D
libRbt.so/2013.1/901 2013/11/27
 29 32  0  0  0  0  0  0  0  0999 V2000
  -18.8681   21.5565  -15.3681 C   0  0  0  0  0  0
  -19.6732   21.1910  -14.2271 N   0  0  0  0  0  0
  -20.2553   22.2165  -13.6109 N   0  0  0  0  0  0
  -21.4500   21.7303  -13.2630 C   0  0  0  0  0  0
  -21.4058   20.3214  -13.2754 C   0  0  0  0  0  0
  -20.1785   19.9774  -13.8274 C   0  0  0  0  0  0
  -19.7320   18.6222  -14.0320 C   0  0  0  0  0  0
  -19.2395   17.9838  -13.0987 O   0  0  0  0  0  0
  -19.8136   18.0422  -15.2808 N   0  0  0  0  0  0
  -20.1761   18.7074  -16.5567 C   0  0  0  0  0  0
  -21.5248   18.2127  -17.1261 C   0  0  0  0  0  0
  -22.9152   18.8179  -16.6172 C   0  0  0  0  0  0
  -23.3723   18.6330  -14.9002 C   0  0  0  0  0  0
  -24.9528   19.5171  -14.4837 C   0  0  0  0  0  0
  -25.7246   20.3141  -15.6243 C   0  0  0  0  0  0
  -24.7739   20.2670  -17.6660 S   0  0  0  0  0  0
  -19.3965   16.6500  -15.3477 C   0  0  0  0  0  0
  -18.1680   16.6983  -16.1035 C   0  0  0  0  0  0
  -17.6536   16.0940  -17.4820 C   0  0  0  0  0  0
  -15.9420   16.7670  -17.8546 C   0  0  0  0  0  0
  -15.5308   18.0762  -16.3909 C   0  0  0  0  0  0
  -17.0779   17.9204  -15.4210 O   0  0  0  0  0  0
  -22.5305   22.6487  -12.9607 C   0  0  0  0  0  0
  -23.7621   22.1234  -12.5246 C   0  0  0  0  0  0
  -24.8413   22.9588  -12.2743 C   0  0  0  0  0  0
  -24.6809   24.3254  -12.4394 C   0  0  0  0  0  0
  -25.7288   25.1339  -12.2433 F   0  0  0  0  0  0
  -23.4541   24.8704  -12.8110 C   0  0  0  0  0  0
  -22.3684   24.0323  -13.0630 C   0  0  0  0  0  0
  1  2  1  0  0  0
  2  3  1  0  0  0
  2  6  1  0  0  0
  3  4  2  0  0  0
  4  5  1  0  0  0
  4 23  1  0  0  0
  5  6  2  0  0  0
  6  7  1  0  0  0
  7  8  2  0  0  0
  7  9  1  0  0  0
  9 10  1  0  0  0
  9 17  1  0  0  0
 10 11  1  0  0  0
 11 12  1  0  0  0
 12 13  2  0  0  0
 12 16  1  0  0  0
 13 14  1  0  0  0
 14 15  2  0  0  0
 15 16  1  0  0  0
 17 18  1  0  0  0
 18 19  2  0  0  0
 18 22  1  0  0  0
 19 20  1  0  0  0
 20 21  2  0  0  0
 21 22  1  0  0  0
 23 24  2  0  0  0
 23 29  1  0  0  0
 24 25  1  0  0  0
 25 26  2  0  0  0
 26 27  1  0  0  0
 26 28  1  0  0  0
 28 29  2  0  0  0
M  END
>  <CHROM.0>
40.56490863,-167.33768137,-167.70607369,63.42515520,-32.02201613,-58.63632066
-36.01542003,-157.40823902

>  <CHROM.1>
-176.55144326,107.42914349,-112.92319737,-110.58126802,83.24360454,-61.78783243
-118.83331156,-21.37042013,20.18614241,-14.80414529,-0.75171429,-0.23466608
0.71572460

>  <Name>
F6279-0336

>  <RI>
2.9256e+07

>  <Rbt.Current_Directory>
/home/adria/Escritorio/rDock_CMTR_LC/2pxcA_model/inputs_sah

>  <Rbt.Executable>
rbdock ($Id: //depot/dev/client3/rdock/2013.1/src/exe/rbdock.cxx#4 $)

>  <Rbt.Library>
libRbt.so (2013.1, Build901 2013/11/27)

>  <Rbt.Parameter_File>
/home/adria/Escritorio/rDock_2013.1_src/data/scripts/dock.prm

>  <Rbt.Receptor>
sah_rdock.prm

>  <SCORE>
-305.31

>  <SCORE.INTER>
-12.1747

>  <SCORE.INTER.CONST>
1

>  <SCORE.INTER.POLAR>
-0.79448

>  <SCORE.INTER.REPUL>
0.0399369

>  <SCORE.INTER.ROT>
7

>  <SCORE.INTER.VDW>
-22.0731

>  <SCORE.INTER.norm>
-0.419817

>  <SCORE.INTRA>
-291.269

>  <SCORE.INTRA.DIHEDRAL>
9.92808

>  <SCORE.INTRA.DIHEDRAL.0>
7.9439

>  <SCORE.INTRA.POLAR>
0

>  <SCORE.INTRA.POLAR.0>
0

>  <SCORE.INTRA.REPUL>
0

>  <SCORE.INTRA.REPUL.0>
0

>  <SCORE.INTRA.VDW>
-296.233

>  <SCORE.INTRA.VDW.0>
292.635

>  <SCORE.INTRA.norm>
-10.0438

>  <SCORE.RESTR>
0

>  <SCORE.RESTR.CAVITY>
0

>  <SCORE.RESTR.norm>
0

>  <SCORE.SYSTEM>
-1.86693

>  <SCORE.SYSTEM.CONST>
0

>  <SCORE.SYSTEM.DIHEDRAL>
8.06446

>  <SCORE.SYSTEM.POLAR>
-3.58857

>  <SCORE.SYSTEM.REPUL>
0.121295

>  <SCORE.SYSTEM.VDW>
5.6955

>  <SCORE.SYSTEM.norm>
-0.0643768

>  <SCORE.heavy>
29

>  <SCORE.norm>
-10.5279

$$$$
F6279-0336
  rDOCK(R)          3D
libRbt.so/2013.1/901 2013/11/27
 29 32  0  0  0  0  0  0  0  0999 V2000
  -24.0459   20.0941   -9.5078 C   0  0  0  0  0  0
  -23.7679   21.0104  -10.5880 N   0  0  0  0  0  0
  -23.4134   22.2321  -10.1982 N   0  0  0  0  0  0
  -22.4764   22.5796  -11.0848 C   0  0  0  0  0  0
  -22.5917   21.7692  -12.2325 C   0  0  0  0  0  0
  -23.5264   20.7897  -11.9225 C   0  0  0  0  0  0
  -23.9343   19.7426  -12.8252 C   0  0  0  0  0  0
  -24.9825   19.1243  -12.6248 O   0  0  0  0  0  0
  -23.1374   19.3955  -13.8962 N   0  0  0  0  0  0
  -21.7612   19.8716  -14.1816 C   0  0  0  0  0  0
  -20.7501   18.7142  -14.3423 C   0  0  0  0  0  0
  -19.3688   18.9181  -15.1224 C   0  0  0  0  0  0
  -18.7976   20.5748  -15.4694 C   0  0  0  0  0  0
  -17.1164   20.5986  -16.2606 C   0  0  0  0  0  0
  -16.3714   19.2229  -16.5507 C   0  0  0  0  0  0
  -17.4854   17.3602  -15.9476 S   0  0  0  0  0  0
  -23.6866   18.3734  -14.7738 C   0  0  0  0  0  0
  -24.1370   19.1185  -15.9247 C   0  0  0  0  0  0
  -23.9495   19.0054  -17.5002 C   0  0  0  0  0  0
  -25.0149   20.2978  -18.3464 C   0  0  0  0  0  0
  -26.0451   21.2093  -16.8858 C   0  0  0  0  0  0
  -25.3831   20.2875  -15.4469 O   0  0  0  0  0  0
  -21.5475   23.6436  -10.7571 C   0  0  0  0  0  0
  -20.3131   23.6952  -11.4326 C   0  0  0  0  0  0
  -19.3705   24.6629  -11.1158 C   0  0  0  0  0  0
  -19.6732   25.5950  -10.1360 C   0  0  0  0  0  0
  -18.7528   26.5038   -9.7932 F   0  0  0  0  0  0
  -20.9117   25.5991   -9.4988 C   0  0  0  0  0  0
  -21.8602   24.6272   -9.8159 C   0  0  0  0  0  0
  1  2  1  0  0  0
  2  3  1  0  0  0
  2  6  1  0  0  0
  3  4  2  0  0  0
  4  5  1  0  0  0
  4 23  1  0  0  0
  5  6  2  0  0  0
  6  7  1  0  0  0
  7  8  2  0  0  0
  7  9  1  0  0  0
  9 10  1  0  0  0
  9 17  1  0  0  0
 10 11  1  0  0  0
 11 12  1  0  0  0
 12 13  2  0  0  0
 12 16  1  0  0  0
 13 14  1  0  0  0
 14 15  2  0  0  0
 15 16  1  0  0  0
 17 18  1  0  0  0
 18 19  2  0  0  0
 18 22  1  0  0  0
 19 20  1  0  0  0
 20 21  2  0  0  0
 21 22  1  0  0  0
 23 24  2  0  0  0
 23 29  1  0  0  0
 24 25  1  0  0  0
 25 26  2  0  0  0
 26 27  1  0  0  0
 26 28  1  0  0  0
 28 29  2  0  0  0
M  END
>  <CHROM.0>
178.45923751,-74.88657982,72.97368876,65.78103509,-32.22454388,175.62251228
-36.47959024,-162.56605091

>  <CHROM.1>
157.70332370,27.36044561,124.26235469,103.70188856,158.84435985,14.93147799
129.77778251,-21.68663477,21.04230018,-13.32457058,1.50484322,0.11732746
0.83083377

>  <Name>
F6279-0336

>  <RI>
2.9256e+07

>  <Rbt.Current_Directory>
/home/adria/Escritorio/rDock_CMTR_LC/2pxcA_model/inputs_sah

>  <Rbt.Executable>
rbdock ($Id: //depot/dev/client3/rdock/2013.1/src/exe/rbdock.cxx#4 $)

>  <Rbt.Library>
libRbt.so (2013.1, Build901 2013/11/27)

>  <Rbt.Parameter_File>
/home/adria/Escritorio/rDock_2013.1_src/data/scripts/dock.prm

>  <Rbt.Receptor>
sah_rdock.prm

>  <SCORE>
-307.881

>  <SCORE.INTER>
-7.84109

>  <SCORE.INTER.CONST>
1

>  <SCORE.INTER.POLAR>
0

>  <SCORE.INTER.REPUL>
0

>  <SCORE.INTER.ROT>
7

>  <SCORE.INTER.VDW>
-20.2411

>  <SCORE.INTER.norm>
-0.270382

>  <SCORE.INTRA>
-292.624

>  <SCORE.INTRA.DIHEDRAL>
0.563502

>  <SCORE.INTRA.DIHEDRAL.0>
7.9439

>  <SCORE.INTRA.POLAR>
0

>  <SCORE.INTRA.POLAR.0>
0

>  <SCORE.INTRA.REPUL>
0

>  <SCORE.INTRA.REPUL.0>
0

>  <SCORE.INTRA.VDW>
-292.906

>  <SCORE.INTRA.VDW.0>
292.635

>  <SCORE.INTRA.norm>
-10.0905

>  <SCORE.RESTR>
0

>  <SCORE.RESTR.CAVITY>
0

>  <SCORE.RESTR.norm>
0

>  <SCORE.SYSTEM>
-7.41543

>  <SCORE.SYSTEM.CONST>
0

>  <SCORE.SYSTEM.DIHEDRAL>
6.4747

>  <SCORE.SYSTEM.POLAR>
-4.07771

>  <SCORE.SYSTEM.REPUL>
0.0417291

>  <SCORE.SYSTEM.VDW>
3.00277

>  <SCORE.SYSTEM.norm>
-0.255704

>  <SCORE.heavy>
29

>  <SCORE.norm>
-10.6166

$$$$
F6279-0336
  rDOCK(R)          3D
libRbt.so/2013.1/901 2013/11/27
 29 32  0  0  0  0  0  0  0  0999 V2000
  -19.4334   16.2209  -15.9195 C   0  0  0  0  0  0
  -18.6537   17.1532  -15.1406 N   0  0  0  0  0  0
  -17.3824   17.2603  -15.5183 N   0  0  0  0  0  0
  -17.1226   18.5615  -15.3630 C   0  0  0  0  0  0
  -18.0751   19.1305  -14.4935 C   0  0  0  0  0  0
  -19.0347   18.1503  -14.2754 C   0  0  0  0  0  0
  -20.1994   18.3254  -13.4446 C   0  0  0  0  0  0
  -20.5572   17.4259  -12.6804 O   0  0  0  0  0  0
  -20.9466   19.4820  -13.5261 N   0  0  0  0  0  0
  -20.8014   20.5755  -14.5187 C   0  0  0  0  0  0
  -20.0409   21.7968  -13.9549 C   0  0  0  0  0  0
  -20.7181   22.7803  -12.8909 C   0  0  0  0  0  0
  -22.4996   22.8614  -12.7863 C   0  0  0  0  0  0
  -23.0838   23.9574  -11.4041 C   0  0  0  0  0  0
  -22.0125   24.6929  -10.4859 C   0  0  0  0  0  0
  -19.8534   24.3013  -10.9951 S   0  0  0  0  0  0
  -22.0573   19.5714  -12.5908 C   0  0  0  0  0  0
  -23.1979   19.1657  -13.3764 C   0  0  0  0  0  0
  -24.5289   19.8635  -13.8977 C   0  0  0  0  0  0
  -25.4511   18.6784  -15.0232 C   0  0  0  0  0  0
  -24.2877   17.0521  -15.1876 C   0  0  0  0  0  0
  -22.8985   17.5810  -14.1158 O   0  0  0  0  0  0
  -15.9985   19.1505  -16.0644 C   0  0  0  0  0  0
  -15.1040   18.3000  -16.7424 C   0  0  0  0  0  0
  -13.9849   18.8125  -17.3827 C   0  0  0  0  0  0
  -13.7724   20.1818  -17.3636 C   0  0  0  0  0  0
  -12.6725   20.6797  -17.9403 F   0  0  0  0  0  0
  -14.6770   21.0460  -16.7512 C   0  0  0  0  0  0
  -15.8022   20.5327  -16.1071 C   0  0  0  0  0  0
  1  2  1  0  0  0
  2  3  1  0  0  0
  2  6  1  0  0  0
  3  4  2  0  0  0
  4  5  1  0  0  0
  4 23  1  0  0  0
  5  6  2  0  0  0
  6  7  1  0  0  0
  7  8  2  0  0  0
  7  9  1  0  0  0
  9 10  1  0  0  0
  9 17  1  0  0  0
 10 11  1  0  0  0
 11 12  1  0  0  0
 12 13  2  0  0  0
 12 16  1  0  0  0
 13 14  1  0  0  0
 14 15  2  0  0  0
 15 16  1  0  0  0
 17 18  1  0  0  0
 18 19  2  0  0  0
 18 22  1  0  0  0
 19 20  1  0  0  0
 20 21  2  0  0  0
 21 22  1  0  0  0
 23 24  2  0  0  0
 23 29  1  0  0  0
 24 25  1  0  0  0
 25 26  2  0  0  0
 26 27  1  0  0  0
 26 28  1  0  0  0
 28 29  2  0  0  0
M  END
>  <CHROM.0>
-177.26716479,67.04200185,70.39298532,151.48738823,-31.68961307,-176.20043123
-36.24869398,-160.83904256

>  <CHROM.1>
-8.64844272,51.34077710,-101.05750734,-98.09516902,-72.68181430,-22.51336136
-114.94183868,-19.45117725,19.94080938,-14.35292367,0.39200417,-0.34720333
-2.67667504

>  <Name>
F6279-0336

>  <RI>
2.9256e+07

>  <Rbt.Current_Directory>
/home/adria/Escritorio/rDock_CMTR_LC/2pxcA_model/inputs_sah

>  <Rbt.Executable>
rbdock ($Id: //depot/dev/client3/rdock/2013.1/src/exe/rbdock.cxx#4 $)

>  <Rbt.Library>
libRbt.so (2013.1, Build901 2013/11/27)

>  <Rbt.Parameter_File>
/home/adria/Escritorio/rDock_2013.1_src/data/scripts/dock.prm

>  <Rbt.Receptor>
sah_rdock.prm

>  <SCORE>
-306.958

>  <SCORE.INTER>
-9.37852

>  <SCORE.INTER.CONST>
1

>  <SCORE.INTER.POLAR>
-0.640201

>  <SCORE.INTER.REPUL>
0.0163112

>  <SCORE.INTER.ROT>
7

>  <SCORE.INTER.VDW>
-19.6834

>  <SCORE.INTER.norm>
-0.323397

>  <SCORE.INTRA>
-294.02

>  <SCORE.INTRA.DIHEDRAL>
2.933

>  <SCORE.INTRA.DIHEDRAL.0>
7.9439

>  <SCORE.INTRA.POLAR>
0

>  <SCORE.INTRA.POLAR.0>
0

>  <SCORE.INTRA.REPUL>
0

>  <SCORE.INTRA.REPUL.0>
0

>  <SCORE.INTRA.VDW>
-295.487

>  <SCORE.INTRA.VDW.0>
292.635

>  <SCORE.INTRA.norm>
-10.1386

>  <SCORE.RESTR>
0

>  <SCORE.RESTR.CAVITY>
0

>  <SCORE.RESTR.norm>
0

>  <SCORE.SYSTEM>
-3.55901

>  <SCORE.SYSTEM.CONST>
0

>  <SCORE.SYSTEM.DIHEDRAL>
8.91504

>  <SCORE.SYSTEM.POLAR>
-3.67514

>  <SCORE.SYSTEM.VDW>
4.47894

>  <SCORE.SYSTEM.norm>
-0.122725

>  <SCORE.heavy>
29

>  <SCORE.norm>
-10.5847

$$$$
F6279-0336
  rDOCK(R)          3D
libRbt.so/2013.1/901 2013/11/27
 29 32  0  0  0  0  0  0  0  0999 V2000
  -21.3637   18.9196  -15.6596 C   0  0  0  0  0  0
  -19.9641   19.1479  -15.3904 N   0  0  0  0  0  0
  -19.1768   18.1042  -15.6378 N   0  0  0  0  0  0
  -18.0731   18.6626  -16.1425 C   0  0  0  0  0  0
  -18.0315   20.0261  -15.7873 C   0  0  0  0  0  0
  -19.2572   20.3105  -15.1989 C   0  0  0  0  0  0
  -19.6351   21.6080  -14.6976 C   0  0  0  0  0  0
  -19.6872   22.5763  -15.4597 O   0  0  0  0  0  0
  -19.9017   21.7867  -13.3561 N   0  0  0  0  0  0
  -19.6931   20.8064  -12.2619 C   0  0  0  0  0  0
  -20.5603   19.5376  -12.4233 C   0  0  0  0  0  0
  -21.8968   19.3289  -11.5697 C   0  0  0  0  0  0
  -23.0031   17.9912  -11.9919 C   0  0  0  0  0  0
  -24.4229   17.8378  -10.8029 C   0  0  0  0  0  0
  -24.5317   18.8533   -9.5828 C   0  0  0  0  0  0
  -22.8991   20.3994   -9.4474 S   0  0  0  0  0  0
  -20.3386   23.1230  -12.9821 C   0  0  0  0  0  0
  -21.7708   23.0733  -13.1523 C   0  0  0  0  0  0
  -22.9298   22.0548  -12.7654 C   0  0  0  0  0  0
  -24.5910   22.8082  -13.2061 C   0  0  0  0  0  0
  -24.1995   24.6571  -13.8797 C   0  0  0  0  0  0
  -22.3740   24.6425  -13.7194 O   0  0  0  0  0  0
  -17.1618   17.8525  -16.9271 C   0  0  0  0  0  0
  -15.9295   18.4093  -17.3199 C   0  0  0  0  0  0
  -15.0480   17.6918  -18.1158 C   0  0  0  0  0  0
  -15.3909   16.4055  -18.5010 C   0  0  0  0  0  0
  -14.5669   15.7235  -19.3049 F   0  0  0  0  0  0
  -16.5770   15.8138  -18.0730 C   0  0  0  0  0  0
  -17.4641   16.5334  -17.2732 C   0  0  0  0  0  0
  1  2  1  0  0  0
  2  3  1  0  0  0
  2  6  1  0  0  0
  3  4  2  0  0  0
  4  5  1  0  0  0
  4 23  1  0  0  0
  5  6  2  0  0  0
  6  7  1  0  0  0
  7  8  2  0  0  0
  7  9  1  0  0  0
  9 10  1  0  0  0
  9 17  1  0  0  0
 10 11  1  0  0  0
 11 12  1  0  0  0
 12 13  2  0  0  0
 12 16  1  0  0  0
 13 14  1  0  0  0
 14 15  2  0  0  0
 15 16  1  0  0  0
 17 18  1  0  0  0
 18 19  2  0  0  0
 18 22  1  0  0  0
 19 20  1  0  0  0
 20 21  2  0  0  0
 21 22  1  0  0  0
 23 24  2  0  0  0
 23 29  1  0  0  0
 24 25  1  0  0  0
 25 26  2  0  0  0
 26 27  1  0  0  0
 26 28  1  0  0  0
 28 29  2  0  0  0
M  END
>  <CHROM.0>
-60.15476318,-69.68356990,-129.01982346,58.03542546,168.79350389,66.28659572
-158.22553244,-160.82765434

>  <CHROM.1>
-172.66056488,-109.89253243,-63.03920427,88.15848091,-101.80632951,169.56054404
45.40876255,-20.10708703,19.84739234,-14.32258345,0.24471827,-0.80324718
2.87136534

>  <Name>
F6279-0336

>  <RI>
2.9256e+07

>  <Rbt.Current_Directory>
/home/adria/Escritorio/rDock_CMTR_LC/2pxcA_model/inputs_sah

>  <Rbt.Executable>
rbdock ($Id: //depot/dev/client3/rdock/2013.1/src/exe/rbdock.cxx#4 $)

>  <Rbt.Library>
libRbt.so (2013.1, Build901 2013/11/27)

>  <Rbt.Parameter_File>
/home/adria/Escritorio/rDock_2013.1_src/data/scripts/dock.prm

>  <Rbt.Receptor>
sah_rdock.prm

>  <SCORE>
-305.74

>  <SCORE.INTER>
-13.6572

>  <SCORE.INTER.CONST>
1

>  <SCORE.INTER.POLAR>
-0.857905

>  <SCORE.INTER.REPUL>
0

>  <SCORE.INTER.ROT>
7

>  <SCORE.INTER.VDW>
-23.1403

>  <SCORE.INTER.norm>
-0.470937

>  <SCORE.INTRA>
-289.896

>  <SCORE.INTRA.DIHEDRAL>
12.9714

>  <SCORE.INTRA.DIHEDRAL.0>
7.9439

>  <SCORE.INTRA.POLAR>
0

>  <SCORE.INTRA.POLAR.0>
0

>  <SCORE.INTRA.REPUL>
0

>  <SCORE.INTRA.REPUL.0>
0

>  <SCORE.INTRA.VDW>
-296.382

>  <SCORE.INTRA.VDW.0>
292.635

>  <SCORE.INTRA.norm>
-9.99643

>  <SCORE.RESTR>
0

>  <SCORE.RESTR.CAVITY>
0

>  <SCORE.RESTR.norm>
0

>  <SCORE.SYSTEM>
-2.18647

>  <SCORE.SYSTEM.CONST>
0

>  <SCORE.SYSTEM.DIHEDRAL>
6.14058

>  <SCORE.SYSTEM.POLAR>
-4.41574

>  <SCORE.SYSTEM.REPUL>
0.0320834

>  <SCORE.SYSTEM.VDW>
9.59634

>  <SCORE.SYSTEM.norm>
-0.0753954

>  <SCORE.heavy>
29

>  <SCORE.norm>
-10.5428

$$$$
F6279-0336
  rDOCK(R)          3D
libRbt.so/2013.1/901 2013/11/27
 29 32  0  0  0  0  0  0  0  0999 V2000
  -19.1519   20.4598  -16.6778 C   0  0  0  0  0  0
  -19.0465   19.0825  -16.2588 N   0  0  0  0  0  0
  -18.5827   18.2554  -17.1921 N   0  0  0  0  0  0
  -17.8145   17.4089  -16.5008 C   0  0  0  0  0  0
  -18.1690   17.4589  -15.1373 C   0  0  0  0  0  0
  -19.0643   18.5130  -15.0085 C   0  0  0  0  0  0
  -19.6692   18.9163  -13.7639 C   0  0  0  0  0  0
  -19.0423   18.8117  -12.7069 O   0  0  0  0  0  0
  -20.9667   19.3835  -13.7383 N   0  0  0  0  0  0
  -21.9412   19.3863  -14.8574 C   0  0  0  0  0  0
  -23.0019   18.2699  -14.7285 C   0  0  0  0  0  0
  -23.9684   18.1830  -13.4571 C   0  0  0  0  0  0
  -23.5707   17.0518  -12.1329 C   0  0  0  0  0  0
  -24.7390   17.1976  -10.6952 C   0  0  0  0  0  0
  -25.9289   18.2519  -10.7609 C   0  0  0  0  0  0
  -26.0518   19.4727  -12.6501 S   0  0  0  0  0  0
  -21.4431   19.8236  -12.4360 C   0  0  0  0  0  0
  -21.5719   21.2532  -12.5855 C   0  0  0  0  0  0
  -22.7553   22.2620  -12.9201 C   0  0  0  0  0  0
  -22.1300   24.0247  -12.7682 C   0  0  0  0  0  0
  -20.2355   23.8867  -12.1221 C   0  0  0  0  0  0
  -20.0957   22.0620  -12.0248 O   0  0  0  0  0  0
  -16.8039   16.6362  -17.1966 C   0  0  0  0  0  0
  -17.0176   16.3055  -18.5485 C   0  0  0  0  0  0
  -16.1044   15.5231  -19.2407 C   0  0  0  0  0  0
  -14.9634   15.0894  -18.5847 C   0  0  0  0  0  0
  -14.0999   14.2978  -19.2313 F   0  0  0  0  0  0
  -14.7031   15.4560  -17.2664 C   0  0  0  0  0  0
  -15.6198   16.2421  -16.5691 C   0  0  0  0  0  0
  1  2  1  0  0  0
  2  3  1  0  0  0
  2  6  1  0  0  0
  3  4  2  0  0  0
  4  5  1  0  0  0
  4 23  1  0  0  0
  5  6  2  0  0  0
  6  7  1  0  0  0
  7  8  2  0  0  0
  7  9  1  0  0  0
  9 10  1  0  0  0
  9 17  1  0  0  0
 10 11  1  0  0  0
 11 12  1  0  0  0
 12 13  2  0  0  0
 12 16  1  0  0  0
 13 14  1  0  0  0
 14 15  2  0  0  0
 15 16  1  0  0  0
 17 18  1  0  0  0
 18 19  2  0  0  0
 18 22  1  0  0  0
 19 20  1  0  0  0
 20 21  2  0  0  0
 21 22  1  0  0  0
 23 24  2  0  0  0
 23 29  1  0  0  0
 24 25  1  0  0  0
 25 26  2  0  0  0
 26 27  1  0  0  0
 26 28  1  0  0  0
 28 29  2  0  0  0
M  END
>  <CHROM.0>
-61.68684010,66.32199614,111.84717867,63.77571510,-30.33920236,62.87633266
-38.18474130,-161.66043336

>  <CHROM.1>
-28.71117872,-137.33220104,103.28961148,111.12932461,59.15230896,-98.64776469
96.60560040,-20.15670515,18.61655150,-14.68503173,-0.58125403,0.46330102
0.34412647

>  <Name>
F6279-0336

>  <RI>
2.9256e+07

>  <Rbt.Current_Directory>
/home/adria/Escritorio/rDock_CMTR_LC/2pxcA_model/inputs_sah

>  <Rbt.Executable>
rbdock ($Id: //depot/dev/client3/rdock/2013.1/src/exe/rbdock.cxx#4 $)

>  <Rbt.Library>
libRbt.so (2013.1, Build901 2013/11/27)

>  <Rbt.Parameter_File>
/home/adria/Escritorio/rDock_2013.1_src/data/scripts/dock.prm

>  <Rbt.Receptor>
sah_rdock.prm

>  <SCORE>
-302.102

>  <SCORE.INTER>
-1.38425

>  <SCORE.INTER.CONST>
1

>  <SCORE.INTER.POLAR>
0

>  <SCORE.INTER.REPUL>
0.425951

>  <SCORE.INTER.ROT>
7

>  <SCORE.INTER.VDW>
-15.914

>  <SCORE.INTER.norm>
-0.0477327

>  <SCORE.INTRA>
-293.71

>  <SCORE.INTRA.DIHEDRAL>
3.79856

>  <SCORE.INTRA.DIHEDRAL.0>
7.9439

>  <SCORE.INTRA.POLAR>
0

>  <SCORE.INTRA.POLAR.0>
0

>  <SCORE.INTRA.REPUL>
0

>  <SCORE.INTRA.REPUL.0>
0

>  <SCORE.INTRA.VDW>
-295.61

>  <SCORE.INTRA.VDW.0>
292.635

>  <SCORE.INTRA.norm>
-10.1279

>  <SCORE.RESTR>
0.00105154

>  <SCORE.RESTR.CAVITY>
0.00105154

>  <SCORE.RESTR.norm>
3.62602e-05

>  <SCORE.SYSTEM>
-7.00877

>  <SCORE.SYSTEM.CONST>
0

>  <SCORE.SYSTEM.DIHEDRAL>
8.80197

>  <SCORE.SYSTEM.POLAR>
-4.27753

>  <SCORE.SYSTEM.VDW>
3.13385

>  <SCORE.SYSTEM.norm>
-0.241682

>  <SCORE.heavy>
29

>  <SCORE.norm>
-10.4173

$$$$
F6279-0336
  rDOCK(R)          3D
libRbt.so/2013.1/901 2013/11/27
 29 32  0  0  0  0  0  0  0  0999 V2000
  -19.5358   20.3173  -13.3885 C   0  0  0  0  0  0
  -19.5419   19.4069  -14.5087 N   0  0  0  0  0  0
  -18.7499   19.7655  -15.5159 N   0  0  0  0  0  0
  -18.2510   18.6032  -15.9456 C   0  0  0  0  0  0
  -19.0689   17.5461  -15.4973 C   0  0  0  0  0  0
  -19.9850   18.1111  -14.6193 C   0  0  0  0  0  0
  -21.0059   17.3688  -13.9233 C   0  0  0  0  0  0
  -20.6981   16.5895  -13.0183 O   0  0  0  0  0  0
  -22.3300   17.4922  -14.2897 N   0  0  0  0  0  0
  -22.8705   18.2078  -15.4720 C   0  0  0  0  0  0
  -24.0667   19.1213  -15.1218 C   0  0  0  0  0  0
  -24.7483   20.0591  -16.2238 C   0  0  0  0  0  0
  -24.5650   19.6503  -17.9531 C   0  0  0  0  0  0
  -25.5382   20.7816  -19.0604 C   0  0  0  0  0  0
  -26.3990   21.9539  -18.4151 C   0  0  0  0  0  0
  -26.3254   22.0997  -16.1684 S   0  0  0  0  0  0
  -23.2734   16.7470  -13.4705 C   0  0  0  0  0  0
  -23.6053   17.6678  -12.4100 C   0  0  0  0  0  0
  -24.8999   17.9890  -11.5433 C   0  0  0  0  0  0
  -24.4651   19.2475  -10.2210 C   0  0  0  0  0  0
  -22.4919   19.5691  -10.3899 C   0  0  0  0  0  0
  -22.1348   18.4444  -11.7920 O   0  0  0  0  0  0
  -17.0345   18.6002  -16.7346 C   0  0  0  0  0  0
  -16.7431   17.4705  -17.5233 C   0  0  0  0  0  0
  -15.5655   17.3995  -18.2536 C   0  0  0  0  0  0
  -14.6877   18.4711  -18.2122 C   0  0  0  0  0  0
  -13.5297   18.3922  -18.8777 F   0  0  0  0  0  0
  -14.9853   19.6226  -17.4873 C   0  0  0  0  0  0
  -16.1683   19.6958  -16.7527 C   0  0  0  0  0  0
  1  2  1  0  0  0
  2  3  1  0  0  0
  2  6  1  0  0  0
  3  4  2  0  0  0
  4  5  1  0  0  0
  4 23  1  0  0  0
  5  6  2  0  0  0
  6  7  1  0  0  0
  7  8  2  0  0  0
  7  9  1  0  0  0
  9 10  1  0  0  0
  9 17  1  0  0  0
 10 11  1  0  0  0
 11 12  1  0  0  0
 12 13  2  0  0  0
 12 16  1  0  0  0
 13 14  1  0  0  0
 14 15  2  0  0  0
 15 16  1  0  0  0
 17 18  1  0  0  0
 18 19  2  0  0  0
 18 22  1  0  0  0
 19 20  1  0  0  0
 20 21  2  0  0  0
 21 22  1  0  0  0
 23 24  2  0  0  0
 23 29  1  0  0  0
 24 25  1  0  0  0
 25 26  2  0  0  0
 26 27  1  0  0  0
 26 28  1  0  0  0
 28 29  2  0  0  0
M  END
>  <CHROM.0>
-176.40572801,65.70276532,-10.79455874,61.29897937,-29.99532815,-58.40328176
83.04337894,-161.84496400

>  <CHROM.1>
-160.34863667,-100.55102647,-133.10795140,88.81209539,176.08166687,22.42905928
145.99075717,-20.98597370,18.97575343,-15.30137798,-0.21860432,-0.24824135
1.94988352

>  <Name>
F6279-0336

>  <RI>
2.9256e+07

>  <Rbt.Current_Directory>
/home/adria/Escritorio/rDock_CMTR_LC/2pxcA_model/inputs_sah

>  <Rbt.Executable>
rbdock ($Id: //depot/dev/client3/rdock/2013.1/src/exe/rbdock.cxx#4 $)

>  <Rbt.Library>
libRbt.so (2013.1, Build901 2013/11/27)

>  <Rbt.Parameter_File>
/home/adria/Escritorio/rDock_2013.1_src/data/scripts/dock.prm

>  <Rbt.Receptor>
sah_rdock.prm

>  <SCORE>
-309.339

>  <SCORE.INTER>
-12.8354

>  <SCORE.INTER.CONST>
1

>  <SCORE.INTER.POLAR>
-0.782254

>  <SCORE.INTER.REPUL>
0.0148328

>  <SCORE.INTER.ROT>
7

>  <SCORE.INTER.VDW>
-22.6499

>  <SCORE.INTER.norm>
-0.442599

>  <SCORE.INTRA>
-290.043

>  <SCORE.INTRA.DIHEDRAL>
8.16082

>  <SCORE.INTRA.DIHEDRAL.0>
7.9439

>  <SCORE.INTRA.POLAR>
0

>  <SCORE.INTRA.POLAR.0>
0

>  <SCORE.INTRA.REPUL>
0

>  <SCORE.INTRA.REPUL.0>
0

>  <SCORE.INTRA.VDW>
-294.124

>  <SCORE.INTRA.VDW.0>
292.635

>  <SCORE.INTRA.norm>
-10.0015

>  <SCORE.RESTR>
0

>  <SCORE.RESTR.CAVITY>
0

>  <SCORE.RESTR.norm>
0

>  <SCORE.SYSTEM>
-6.46056

>  <SCORE.SYSTEM.CONST>
0

>  <SCORE.SYSTEM.DIHEDRAL>
8.78336

>  <SCORE.SYSTEM.POLAR>
-4.22574

>  <SCORE.SYSTEM.VDW>
3.51527

>  <SCORE.SYSTEM.norm>
-0.222778

>  <SCORE.heavy>
29

>  <SCORE.norm>
-10.6669

$$$$
F6279-0336
  rDOCK(R)          3D
libRbt.so/2013.1/901 2013/11/27
 29 32  0  0  0  0  0  0  0  0999 V2000
  -21.9434   16.8994  -13.4096 C   0  0  0  0  0  0
  -20.7615   17.6453  -13.0482 N   0  0  0  0  0  0
  -19.6566   17.2738  -13.6897 N   0  0  0  0  0  0
  -19.0202   18.4288  -13.9033 C   0  0  0  0  0  0
  -19.5154   19.4088  -13.0193 C   0  0  0  0  0  0
  -20.6125   18.8397  -12.3855 C   0  0  0  0  0  0
  -21.4218   19.5145  -11.4020 C   0  0  0  0  0  0
  -21.7024   18.9545  -10.3396 O   0  0  0  0  0  0
  -21.9228   20.7742  -11.6566 N   0  0  0  0  0  0
  -21.8717   21.5172  -12.9400 C   0  0  0  0  0  0
  -20.9120   22.7274  -12.8917 C   0  0  0  0  0  0
  -21.1284   23.9201  -11.8481 C   0  0  0  0  0  0
  -19.9123   24.1925  -10.5682 C   0  0  0  0  0  0
  -20.2778   25.7011   -9.5466 C   0  0  0  0  0  0
  -21.5695   26.5706   -9.8740 C   0  0  0  0  0  0
  -22.8335   25.8384  -11.5888 S   0  0  0  0  0  0
  -22.6670   21.3796  -10.5628 C   0  0  0  0  0  0
  -24.0447   21.1119  -10.8988 C   0  0  0  0  0  0
  -25.1614   20.0934  -10.4030 C   0  0  0  0  0  0
  -26.7883   20.4972  -11.2464 C   0  0  0  0  0  0
  -26.4503   22.1431  -12.3429 C   0  0  0  0  0  0
  -24.6787   22.3949  -11.9473 O   0  0  0  0  0  0
  -18.0057   18.5007  -14.9368 C   0  0  0  0  0  0
  -17.7340   17.3481  -15.6988 C   0  0  0  0  0  0
  -16.7357   17.3534  -16.6624 C   0  0  0  0  0  0
  -16.0226   18.5216  -16.8795 C   0  0  0  0  0  0
  -15.0287   18.5227  -17.7753 F   0  0  0  0  0  0
  -16.3165   19.6895  -16.1797 C   0  0  0  0  0  0
  -17.3195   19.6860  -15.2108 C   0  0  0  0  0  0
  1  2  1  0  0  0
  2  3  1  0  0  0
  2  6  1  0  0  0
  3  4  2  0  0  0
  4  5  1  0  0  0
  4 23  1  0  0  0
  5  6  2  0  0  0
  6  7  1  0  0  0
  7  8  2  0  0  0
  7  9  1  0  0  0
  9 10  1  0  0  0
  9 17  1  0  0  0
 10 11  1  0  0  0
 11 12  1  0  0  0
 12 13  2  0  0  0
 12 16  1  0  0  0
 13 14  1  0  0  0
 14 15  2  0  0  0
 15 16  1  0  0  0
 17 18  1  0  0  0
 18 19  2  0  0  0
 18 22  1  0  0  0
 19 20  1  0  0  0
 20 21  2  0  0  0
 21 22  1  0  0  0
 23 24  2  0  0  0
 23 29  1  0  0  0
 24 25  1  0  0  0
 25 26  2  0  0  0
 26 27  1  0  0  0
 26 28  1  0  0  0
 28 29  2  0  0  0
M  END
>  <CHROM.0>
-60.84078720,-169.42074037,-9.36921601,62.29843908,-30.69113278,61.25513702
-151.93083407,-160.91356480

>  <CHROM.1>
0.80649559,57.40254505,-109.91009917,-97.81839609,-59.75581174,114.60766932
103.45385124,-20.83357235,20.74194966,-12.83635676,0.73502995,-0.47906290
-2.86562476

>  <Name>
F6279-0336

>  <RI>
2.9256e+07

>  <Rbt.Current_Directory>
/home/adria/Escritorio/rDock_CMTR_LC/2pxcA_model/inputs_sah

>  <Rbt.Executable>
rbdock ($Id: //depot/dev/client3/rdock/2013.1/src/exe/rbdock.cxx#4 $)

>  <Rbt.Library>
libRbt.so (2013.1, Build901 2013/11/27)

>  <Rbt.Parameter_File>
/home/adria/Escritorio/rDock_2013.1_src/data/scripts/dock.prm

>  <Rbt.Receptor>
sah_rdock.prm

>  <SCORE>
-315.235

>  <SCORE.INTER>
-15.1012

>  <SCORE.INTER.CONST>
1

>  <SCORE.INTER.POLAR>
-0.901392

>  <SCORE.INTER.REPUL>
0

>  <SCORE.INTER.ROT>
7

>  <SCORE.INTER.VDW>
-24.4365

>  <SCORE.INTER.norm>
-0.520732

>  <SCORE.INTRA>
-294.123

>  <SCORE.INTRA.DIHEDRAL>
2.81948

>  <SCORE.INTRA.DIHEDRAL.0>
7.9439

>  <SCORE.INTRA.POLAR>
0

>  <SCORE.INTRA.POLAR.0>
0

>  <SCORE.INTRA.REPUL>
0

>  <SCORE.INTRA.REPUL.0>
0

>  <SCORE.INTRA.VDW>
-295.533

>  <SCORE.INTRA.VDW.0>
292.635

>  <SCORE.INTRA.norm>
-10.1422

>  <SCORE.RESTR>
0

>  <SCORE.RESTR.CAVITY>
0

>  <SCORE.RESTR.norm>
0

>  <SCORE.SYSTEM>
-6.0106

>  <SCORE.SYSTEM.CONST>
0

>  <SCORE.SYSTEM.DIHEDRAL>
9.56092

>  <SCORE.SYSTEM.POLAR>
-4.33965

>  <SCORE.SYSTEM.VDW>
3.96374

>  <SCORE.SYSTEM.norm>
-0.207262

>  <SCORE.heavy>
29

>  <SCORE.norm>
-10.8702

$$$$
F6279-0336
  rDOCK(R)          3D
libRbt.so/2013.1/901 2013/11/27
 29 32  0  0  0  0  0  0  0  0999 V2000
  -19.2857   22.1638  -15.4777 C   0  0  0  0  0  0
  -19.9452   21.8272  -14.2386 N   0  0  0  0  0  0
  -19.8310   22.7476  -13.2846 N   0  0  0  0  0  0
  -21.0256   22.7232  -12.6871 C   0  0  0  0  0  0
  -21.6770   21.5098  -12.9881 C   0  0  0  0  0  0
  -20.8962   20.8789  -13.9481 C   0  0  0  0  0  0
  -21.2125   19.6041  -14.5416 C   0  0  0  0  0  0
  -21.7452   19.5522  -15.6528 O   0  0  0  0  0  0
  -20.9603   18.4339  -13.8562 N   0  0  0  0  0  0
  -20.5240   18.2977  -12.4444 C   0  0  0  0  0  0
  -21.7057   18.0831  -11.4721 C   0  0  0  0  0  0
  -22.7728   19.2409  -11.1908 C   0  0  0  0  0  0
  -22.6492   20.1963   -9.6864 C   0  0  0  0  0  0
  -23.8949   21.5732   -9.6116 C   0  0  0  0  0  0
  -24.9111   21.7721  -10.8196 C   0  0  0  0  0  0
  -24.7058   20.3115  -12.5222 S   0  0  0  0  0  0
  -21.2585   17.2105  -14.5847 C   0  0  0  0  0  0
  -19.9993   16.8642  -15.1990 C   0  0  0  0  0  0
  -18.9854   15.6419  -15.1090 C   0  0  0  0  0  0
  -17.6209   15.8727  -16.3763 C   0  0  0  0  0  0
  -18.0936   17.5300  -17.4037 C   0  0  0  0  0  0
  -19.6475   17.9726  -16.5389 O   0  0  0  0  0  0
  -21.4461   23.8607  -11.8924 C   0  0  0  0  0  0
  -20.4676   24.7630  -11.4328 C   0  0  0  0  0  0
  -20.8154   25.8364  -10.6251 C   0  0  0  0  0  0
  -22.1487   26.0199  -10.2951 C   0  0  0  0  0  0
  -22.4869   27.0261   -9.4806 F   0  0  0  0  0  0
  -23.1395   25.1746  -10.7890 C   0  0  0  0  0  0
  -22.7918   24.0954  -11.6007 C   0  0  0  0  0  0
  1  2  1  0  0  0
  2  3  1  0  0  0
  2  6  1  0  0  0
  3  4  2  0  0  0
  4  5  1  0  0  0
  4 23  1  0  0  0
  5  6  2  0  0  0
  6  7  1  0  0  0
  7  8  2  0  0  0
  7  9  1  0  0  0
  9 10  1  0  0  0
  9 17  1  0  0  0
 10 11  1  0  0  0
 11 12  1  0  0  0
 12 13  2  0  0  0
 12 16  1  0  0  0
 13 14  1  0  0  0
 14 15  2  0  0  0
 15 16  1  0  0  0
 17 18  1  0  0  0
 18 19  2  0  0  0
 18 22  1  0  0  0
 19 20  1  0  0  0
 20 21  2  0  0  0
 21 22  1  0  0  0
 23 24  2  0  0  0
 23 29  1  0  0  0
 24 25  1  0  0  0
 25 26  2  0  0  0
 26 27  1  0  0  0
 26 28  1  0  0  0
 28 29  2  0  0  0
M  END
>  <CHROM.0>
-60.44078721,-70.91658169,-45.07702549,63.92929343,-28.62962405,178.75243298
-36.22912308,-163.05619239

>  <CHROM.1>
-19.12962394,-71.51074277,94.45429135,93.30515830,-67.89295354,-101.47638888
117.98137687,-21.41375859,20.93012744,-12.95147551,-1.15596651,0.69652445
0.31308261

>  <Name>
F6279-0336

>  <RI>
2.9256e+07

>  <Rbt.Current_Directory>
/home/adria/Escritorio/rDock_CMTR_LC/2pxcA_model/inputs_sah

>  <Rbt.Executable>
rbdock ($Id: //depot/dev/client3/rdock/2013.1/src/exe/rbdock.cxx#4 $)

>  <Rbt.Library>
libRbt.so (2013.1, Build901 2013/11/27)

>  <Rbt.Parameter_File>
/home/adria/Escritorio/rDock_2013.1_src/data/scripts/dock.prm

>  <Rbt.Receptor>
sah_rdock.prm

>  <SCORE>
-306.225

>  <SCORE.INTER>
-4.61071

>  <SCORE.INTER.CONST>
1

>  <SCORE.INTER.POLAR>
0

>  <SCORE.INTER.REPUL>
0.201317

>  <SCORE.INTER.ROT>
7

>  <SCORE.INTER.VDW>
-18.0173

>  <SCORE.INTER.norm>
-0.15899

>  <SCORE.INTRA>
-294.09

>  <SCORE.INTRA.DIHEDRAL>
7.45794

>  <SCORE.INTRA.DIHEDRAL.0>
7.9439

>  <SCORE.INTRA.POLAR>
0

>  <SCORE.INTRA.POLAR.0>
0

>  <SCORE.INTRA.REPUL>
0

>  <SCORE.INTRA.REPUL.0>
0

>  <SCORE.INTRA.VDW>
-297.819

>  <SCORE.INTRA.VDW.0>
292.635

>  <SCORE.INTRA.norm>
-10.141

>  <SCORE.RESTR>
0

>  <SCORE.RESTR.CAVITY>
0

>  <SCORE.RESTR.norm>
0

>  <SCORE.SYSTEM>
-7.52455

>  <SCORE.SYSTEM.CONST>
0

>  <SCORE.SYSTEM.DIHEDRAL>
6.66407

>  <SCORE.SYSTEM.POLAR>
-4.02713

>  <SCORE.SYSTEM.REPUL>
0.0346047

>  <SCORE.SYSTEM.VDW>
2.66261

>  <SCORE.SYSTEM.norm>
-0.259467

>  <SCORE.heavy>
29

>  <SCORE.norm>
-10.5595

$$$$
F6279-0336
  rDOCK(R)          3D
libRbt.so/2013.1/901 2013/11/27
 29 32  0  0  0  0  0  0  0  0999 V2000
  -22.3625   18.3170  -15.0897 C   0  0  0  0  0  0
  -21.1326   17.7569  -14.5824 N   0  0  0  0  0  0
  -20.4224   17.0797  -15.4809 N   0  0  0  0  0  0
  -19.1597   17.3882  -15.1729 C   0  0  0  0  0  0
  -19.1040   17.8766  -13.8516 C   0  0  0  0  0  0
  -20.4216   18.0230  -13.4371 C   0  0  0  0  0  0
  -20.8144   18.5107  -12.1389 C   0  0  0  0  0  0
  -20.7463   17.7733  -11.1526 O   0  0  0  0  0  0
  -21.3077   19.7907  -11.9947 N   0  0  0  0  0  0
  -21.6570   20.7444  -13.0767 C   0  0  0  0  0  0
  -21.6624   22.2139  -12.5988 C   0  0  0  0  0  0
  -22.9433   22.8520  -11.8842 C   0  0  0  0  0  0
  -24.1198   23.7749  -12.8615 C   0  0  0  0  0  0
  -25.5978   24.3170  -11.8741 C   0  0  0  0  0  0
  -25.6853   23.9406  -10.3306 C   0  0  0  0  0  0
  -23.9498   22.7617   -9.5106 S   0  0  0  0  0  0
  -21.6055   20.1916  -10.6283 C   0  0  0  0  0  0
  -23.0187   19.9305  -10.4969 C   0  0  0  0  0  0
  -24.2469   19.7765  -11.4960 C   0  0  0  0  0  0
  -25.7735   19.2698  -10.5295 C   0  0  0  0  0  0
  -25.1700   19.0180   -8.6327 C   0  0  0  0  0  0
  -23.3972   19.4358   -8.8357 O   0  0  0  0  0  0
  -18.1199   17.2019  -16.1662 C   0  0  0  0  0  0
  -16.8062   17.6004  -15.8526 C   0  0  0  0  0  0
  -15.7887   17.4910  -16.7895 C   0  0  0  0  0  0
  -16.0819   16.9607  -18.0358 C   0  0  0  0  0  0
  -15.1166   16.8930  -18.9598 F   0  0  0  0  0  0
  -17.3609   16.5041  -18.3452 C   0  0  0  0  0  0
  -18.3849   16.6134  -17.4049 C   0  0  0  0  0  0
  1  2  1  0  0  0
  2  3  1  0  0  0
  2  6  1  0  0  0
  3  4  2  0  0  0
  4  5  1  0  0  0
  4 23  1  0  0  0
  5  6  2  0  0  0
  6  7  1  0  0  0
  7  8  2  0  0  0
  7  9  1  0  0  0
  9 10  1  0  0  0
  9 17  1  0  0  0
 10 11  1  0  0  0
 11 12  1  0  0  0
 12 13  2  0  0  0
 12 16  1  0  0  0
 13 14  1  0  0  0
 14 15  2  0  0  0
 15 16  1  0  0  0
 17 18  1  0  0  0
 18 19  2  0  0  0
 18 22  1  0  0  0
 19 20  1  0  0  0
 20 21  2  0  0  0
 21 22  1  0  0  0
 23 24  2  0  0  0
 23 29  1  0  0  0
 24 25  1  0  0  0
 25 26  2  0  0  0
 26 27  1  0  0  0
 26 28  1  0  0  0
 28 29  2  0  0  0
M  END
>  <CHROM.0>
-70.51587171,66.45474640,-166.62270285,-56.11166337,35.72402944,-179.34247776
-57.16334757,-159.38737219

>  <CHROM.1>
176.53662371,112.08781610,-158.25053027,-95.94136634,-84.02715158,-95.38818226
-22.19694935,-21.18786730,19.43608130,-13.20106874,-0.08323518,0.85634347
-0.50418711

>  <Name>
F6279-0336

>  <RI>
2.9256e+07

>  <Rbt.Current_Directory>
/home/adria/Escritorio/rDock_CMTR_LC/2pxcA_model/inputs_sah

>  <Rbt.Executable>
rbdock ($Id: //depot/dev/client3/rdock/2013.1/src/exe/rbdock.cxx#4 $)

>  <Rbt.Library>
libRbt.so (2013.1, Build901 2013/11/27)

>  <Rbt.Parameter_File>
/home/adria/Escritorio/rDock_2013.1_src/data/scripts/dock.prm

>  <Rbt.Receptor>
sah_rdock.prm

>  <SCORE>
-295.508

>  <SCORE.INTER>
-12.2429

>  <SCORE.INTER.CONST>
1

>  <SCORE.INTER.POLAR>
-1.61145

>  <SCORE.INTER.REPUL>
0.0136615

>  <SCORE.INTER.ROT>
7

>  <SCORE.INTER.VDW>
-19.2323

>  <SCORE.INTER.norm>
-0.422169

>  <SCORE.INTRA>
-289.598

>  <SCORE.INTRA.DIHEDRAL>
8.25754

>  <SCORE.INTRA.DIHEDRAL.0>
7.9439

>  <SCORE.INTRA.POLAR>
0

>  <SCORE.INTRA.POLAR.0>
0

>  <SCORE.INTRA.REPUL>
0

>  <SCORE.INTRA.REPUL.0>
0

>  <SCORE.INTRA.VDW>
-293.727

>  <SCORE.INTRA.VDW.0>
292.635

>  <SCORE.INTRA.norm>
-9.98615

>  <SCORE.RESTR>
0.0203704

>  <SCORE.RESTR.CAVITY>
0.0203704

>  <SCORE.RESTR.norm>
0.000702426

>  <SCORE.SYSTEM>
6.31338

>  <SCORE.SYSTEM.CONST>
0

>  <SCORE.SYSTEM.DIHEDRAL>
4.38768

>  <SCORE.SYSTEM.POLAR>
-2.80393

>  <SCORE.SYSTEM.VDW>
13.6529

>  <SCORE.SYSTEM.norm>
0.217703

>  <SCORE.heavy>
29

>  <SCORE.norm>
-10.1899

$$$$
F6279-0336
  rDOCK(R)          3D
libRbt.so/2013.1/901 2013/11/27
 29 32  0  0  0  0  0  0  0  0999 V2000
  -22.1115   16.9248  -13.3115 C   0  0  0  0  0  0
  -20.9204   17.6525  -12.9435 N   0  0  0  0  0  0
  -19.8159   17.2572  -13.5712 N   0  0  0  0  0  0
  -19.1572   18.3994  -13.7864 C   0  0  0  0  0  0
  -19.6440   19.3942  -12.9142 C   0  0  0  0  0  0
  -20.7571   18.8488  -12.2876 C   0  0  0  0  0  0
  -21.5642   19.5447  -11.3170 C   0  0  0  0  0  0
  -21.9673   18.9575  -10.3101 O   0  0  0  0  0  0
  -21.9265   20.8592  -11.5251 N   0  0  0  0  0  0
  -21.7193   21.6626  -12.7554 C   0  0  0  0  0  0
  -20.6835   22.7931  -12.5630 C   0  0  0  0  0  0
  -20.9315   23.9805  -11.5205 C   0  0  0  0  0  0
  -22.6062   24.4592  -11.1236 C   0  0  0  0  0  0
  -22.6812   25.7601   -9.7987 C   0  0  0  0  0  0
  -21.3278   26.3105   -9.1686 C   0  0  0  0  0  0
  -19.4307   25.4156   -9.9897 S   0  0  0  0  0  0
  -22.6829   21.4737  -10.4449 C   0  0  0  0  0  0
  -24.0509   21.1275  -10.7469 C   0  0  0  0  0  0
  -24.7780   20.0662  -11.6824 C   0  0  0  0  0  0
  -26.6293   20.1428  -11.3860 C   0  0  0  0  0  0
  -26.8988   21.4694   -9.9051 C   0  0  0  0  0  0
  -25.1506   21.9355   -9.6131 O   0  0  0  0  0  0
  -18.1314   18.4463  -14.8101 C   0  0  0  0  0  0
  -17.8595   17.2785  -15.5485 C   0  0  0  0  0  0
  -16.8510   17.2600  -16.5013 C   0  0  0  0  0  0
  -16.1278   18.4195  -16.7315 C   0  0  0  0  0  0
  -15.1245   18.3981  -17.6165 F   0  0  0  0  0  0
  -16.4212   19.6016  -16.0557 C   0  0  0  0  0  0
  -17.4343   19.6220  -15.0977 C   0  0  0  0  0  0
  1  2  1  0  0  0
  2  3  1  0  0  0
  2  6  1  0  0  0
  3  4  2  0  0  0
  4  5  1  0  0  0
  4 23  1  0  0  0
  5  6  2  0  0  0
  6  7  1  0  0  0
  7  8  2  0  0  0
  7  9  1  0  0  0
  9 10  1  0  0  0
  9 17  1  0  0  0
 10 11  1  0  0  0
 11 12  1  0  0  0
 12 13  2  0  0  0
 12 16  1  0  0  0
 13 14  1  0  0  0
 14 15  2  0  0  0
 15 16  1  0  0  0
 17 18  1  0  0  0
 18 19  2  0  0  0
 18 22  1  0  0  0
 19 20  1  0  0  0
 20 21  2  0  0  0
 21 22  1  0  0  0
 23 24  2  0  0  0
 23 29  1  0  0  0
 24 25  1  0  0  0
 25 26  2  0  0  0
 26 27  1  0  0  0
 26 28  1  0  0  0
 28 29  2  0  0  0
M  END
>  <CHROM.0>
39.36696563,-75.03331131,-46.00938206,60.79080964,-29.24099286,-171.20930156
-35.21900231,-170.91145722

>  <CHROM.1>
-0.06906143,50.77273302,-111.45126970,-86.81341052,-62.70354192,-27.75212231
16.48683438,-20.78878721,20.65519893,-12.49323309,0.79262422,-0.45527402
-2.71170438

>  <Name>
F6279-0336

>  <RI>
2.9256e+07

>  <Rbt.Current_Directory>
/home/adria/Escritorio/rDock_CMTR_LC/2pxcA_model/inputs_sah

>  <Rbt.Executable>
rbdock ($Id: //depot/dev/client3/rdock/2013.1/src/exe/rbdock.cxx#4 $)

>  <Rbt.Library>
libRbt.so (2013.1, Build901 2013/11/27)

>  <Rbt.Parameter_File>
/home/adria/Escritorio/rDock_2013.1_src/data/scripts/dock.prm

>  <Rbt.Receptor>
sah_rdock.prm

>  <SCORE>
-311.4

>  <SCORE.INTER>
-14.8461

>  <SCORE.INTER.CONST>
1

>  <SCORE.INTER.POLAR>
-0.958644

>  <SCORE.INTER.REPUL>
0

>  <SCORE.INTER.ROT>
7

>  <SCORE.INTER.VDW>
-23.9867

>  <SCORE.INTER.norm>
-0.511934

>  <SCORE.INTRA>
-293.633

>  <SCORE.INTRA.DIHEDRAL>
2.44419

>  <SCORE.INTRA.DIHEDRAL.0>
7.9439

>  <SCORE.INTRA.POLAR>
0

>  <SCORE.INTRA.POLAR.0>
0

>  <SCORE.INTRA.REPUL>
0

>  <SCORE.INTRA.REPUL.0>
0

>  <SCORE.INTRA.VDW>
-294.855

>  <SCORE.INTRA.VDW.0>
292.635

>  <SCORE.INTRA.norm>
-10.1253

>  <SCORE.RESTR>
0

>  <SCORE.RESTR.CAVITY>
0

>  <SCORE.RESTR.norm>
0

>  <SCORE.SYSTEM>
-2.92093

>  <SCORE.SYSTEM.CONST>
0

>  <SCORE.SYSTEM.DIHEDRAL>
8.79241

>  <SCORE.SYSTEM.POLAR>
-3.96721

>  <SCORE.SYSTEM.REPUL>
0.167206

>  <SCORE.SYSTEM.VDW>
5.33536

>  <SCORE.SYSTEM.norm>
-0.100722

>  <SCORE.heavy>
29

>  <SCORE.norm>
-10.7379

$$$$
F6279-0336
  rDOCK(R)          3D
libRbt.so/2013.1/901 2013/11/27
 29 32  0  0  0  0  0  0  0  0999 V2000
  -18.2944   19.9528  -13.2719 C   0  0  0  0  0  0
  -19.0960   18.8545  -13.7564 N   0  0  0  0  0  0
  -19.9010   18.3144  -12.8450 N   0  0  0  0  0  0
  -21.0058   18.0281  -13.5394 C   0  0  0  0  0  0
  -20.6991   17.9875  -14.9148 C   0  0  0  0  0  0
  -19.3933   18.4456  -15.0340 C   0  0  0  0  0  0
  -18.6889   18.5723  -16.2851 C   0  0  0  0  0  0
  -18.2848   19.6755  -16.6605 O   0  0  0  0  0  0
  -18.4964   17.4701  -17.0918 N   0  0  0  0  0  0
  -19.0811   16.1175  -16.9167 C   0  0  0  0  0  0
  -18.7706   15.5073  -15.5314 C   0  0  0  0  0  0
  -17.6557   14.3745  -15.3519 C   0  0  0  0  0  0
  -17.7475   13.2729  -13.9486 C   0  0  0  0  0  0
  -16.4432   11.9501  -13.9938 C   0  0  0  0  0  0
  -15.4112   11.9134  -15.2043 C   0  0  0  0  0  0
  -15.6688   13.5225  -16.7594 S   0  0  0  0  0  0
  -17.7134   17.7094  -18.2944 C   0  0  0  0  0  0
  -16.3848   17.9626  -17.7911 C   0  0  0  0  0  0
  -15.5201   19.2551  -17.4564 C   0  0  0  0  0  0
  -13.8995   18.7309  -16.6688 C   0  0  0  0  0  0
  -13.9988   16.7367  -16.4720 C   0  0  0  0  0  0
  -15.6603   16.4576  -17.1931 O   0  0  0  0  0  0
  -22.2571   17.8298  -12.8343 C   0  0  0  0  0  0
  -23.3143   17.1824  -13.5023 C   0  0  0  0  0  0
  -24.5471   17.0173  -12.8874 C   0  0  0  0  0  0
  -24.7155   17.4814  -11.5925 C   0  0  0  0  0  0
  -25.9139   17.3661  -11.0086 F   0  0  0  0  0  0
  -23.6650   18.0695  -10.8922 C   0  0  0  0  0  0
  -22.4253   18.2364  -11.5086 C   0  0  0  0  0  0
  1  2  1  0  0  0
  2  3  1  0  0  0
  2  6  1  0  0  0
  3  4  2  0  0  0
  4  5  1  0  0  0
  4 23  1  0  0  0
  5  6  2  0  0  0
  6  7  1  0  0  0
  7  8  2  0  0  0
  7  9  1  0  0  0
  9 10  1  0  0  0
  9 17  1  0  0  0
 10 11  1  0  0  0
 11 12  1  0  0  0
 12 13  2  0  0  0
 12 16  1  0  0  0
 13 14  1  0  0  0
 14 15  2  0  0  0
 15 16  1  0  0  0
 17 18  1  0  0  0
 18 19  2  0  0  0
 18 22  1  0  0  0
 19 20  1  0  0  0
 20 21  2  0  0  0
 21 22  1  0  0  0
 23 24  2  0  0  0
 23 29  1  0  0  0
 24 25  1  0  0  0
 25 26  2  0  0  0
 26 27  1  0  0  0
 26 28  1  0  0  0
 28 29  2  0  0  0
M  END
>  <CHROM.0>
-63.89449554,68.23058282,77.35122425,60.42818813,28.61979824,-176.90665707
-38.52814746,-170.66166987

>  <CHROM.1>
-162.85652710,-51.87545755,-55.67755015,68.88317515,-103.43748116,-156.46973499
-97.04021252,-19.00937425,16.90090470,-14.87620715,-3.04069274,-0.55945125
2.90645848

>  <Name>
F6279-0336

>  <RI>
2.9256e+07

>  <Rbt.Current_Directory>
/home/adria/Escritorio/rDock_CMTR_LC/2pxcA_model/inputs_sah

>  <Rbt.Executable>
rbdock ($Id: //depot/dev/client3/rdock/2013.1/src/exe/rbdock.cxx#4 $)

>  <Rbt.Library>
libRbt.so (2013.1, Build901 2013/11/27)

>  <Rbt.Parameter_File>
/home/adria/Escritorio/rDock_2013.1_src/data/scripts/dock.prm

>  <Rbt.Receptor>
sah_rdock.prm

>  <SCORE>
-294.279

>  <SCORE.INTER>
-8.8022

>  <SCORE.INTER.CONST>
1

>  <SCORE.INTER.POLAR>
-0.326952

>  <SCORE.INTER.REPUL>
0.10805

>  <SCORE.INTER.ROT>
7

>  <SCORE.INTER.VDW>
-20.6308

>  <SCORE.INTER.norm>
-0.303524

>  <SCORE.INTRA>
-290.273

>  <SCORE.INTRA.DIHEDRAL>
10.4864

>  <SCORE.INTRA.DIHEDRAL.0>
7.9439

>  <SCORE.INTRA.POLAR>
0

>  <SCORE.INTRA.POLAR.0>
0

>  <SCORE.INTRA.REPUL>
0

>  <SCORE.INTRA.REPUL.0>
0

>  <SCORE.INTRA.VDW>
-295.516

>  <SCORE.INTRA.VDW.0>
292.635

>  <SCORE.INTRA.norm>
-10.0094

>  <SCORE.RESTR>
0.0422784

>  <SCORE.RESTR.CAVITY>
0.0422784

>  <SCORE.RESTR.norm>
0.00145788

>  <SCORE.SYSTEM>
4.75314

>  <SCORE.SYSTEM.CONST>
0

>  <SCORE.SYSTEM.DIHEDRAL>
6.13022

>  <SCORE.SYSTEM.POLAR>
-3.42071

>  <SCORE.SYSTEM.VDW>
13.3185

>  <SCORE.SYSTEM.norm>
0.163901

>  <SCORE.heavy>
29

>  <SCORE.norm>
-10.1476

$$$$
F6279-0336
  rDOCK(R)          3D
libRbt.so/2013.1/901 2013/11/27
 29 32  0  0  0  0  0  0  0  0999 V2000
  -16.7036   18.6135  -16.1141 C   0  0  0  0  0  0
  -17.4654   17.5267  -16.6816 N   0  0  0  0  0  0
  -16.9490   17.0130  -17.7951 N   0  0  0  0  0  0
  -17.1907   15.7049  -17.6730 C   0  0  0  0  0  0
  -18.2170   15.5027  -16.7279 C   0  0  0  0  0  0
  -18.4579   16.7412  -16.1471 C   0  0  0  0  0  0
  -19.4353   16.9767  -15.1142 C   0  0  0  0  0  0
  -19.3684   16.3645  -14.0457 O   0  0  0  0  0  0
  -20.4759   17.8569  -15.3264 N   0  0  0  0  0  0
  -20.8422   18.5219  -16.6014 C   0  0  0  0  0  0
  -22.2999   18.2357  -17.0270 C   0  0  0  0  0  0
  -23.5015   19.1897  -16.5749 C   0  0  0  0  0  0
  -24.4483   20.0522  -17.8204 C   0  0  0  0  0  0
  -25.8767   20.9990  -17.1018 C   0  0  0  0  0  0
  -26.1206   20.9688  -15.5298 C   0  0  0  0  0  0
  -24.6554   19.7439  -14.3352 S   0  0  0  0  0  0
  -21.3578   18.0625  -14.1878 C   0  0  0  0  0  0
  -20.8548   19.2715  -13.5812 C   0  0  0  0  0  0
  -21.4923   20.6214  -13.0317 C   0  0  0  0  0  0
  -20.1510   21.6594  -12.2288 C   0  0  0  0  0  0
  -18.4778   20.5545  -12.3006 C   0  0  0  0  0  0
  -19.1467   19.0720  -13.1451 O   0  0  0  0  0  0
  -16.4163   14.7627  -18.4573 C   0  0  0  0  0  0
  -16.9985   13.5262  -18.7964 C   0  0  0  0  0  0
  -16.2779   12.5717  -19.4999 C   0  0  0  0  0  0
  -14.9790   12.8641  -19.8843 C   0  0  0  0  0  0
  -14.2622   11.9326  -20.5238 F   0  0  0  0  0  0
  -14.4055   14.1039  -19.6122 C   0  0  0  0  0  0
  -15.1282   15.0645  -18.9053 C   0  0  0  0  0  0
  1  2  1  0  0  0
  2  3  1  0  0  0
  2  6  1  0  0  0
  3  4  2  0  0  0
  4  5  1  0  0  0
  4 23  1  0  0  0
  5  6  2  0  0  0
  6  7  1  0  0  0
  7  8  2  0  0  0
  7  9  1  0  0  0
  9 10  1  0  0  0
  9 17  1  0  0  0
 10 11  1  0  0  0
 11 12  1  0  0  0
 12 13  2  0  0  0
 12 16  1  0  0  0
 13 14  1  0  0  0
 14 15  2  0  0  0
 15 16  1  0  0  0
 17 18  1  0  0  0
 18 19  2  0  0  0
 18 22  1  0  0  0
 19 20  1  0  0  0
 20 21  2  0  0  0
 21 22  1  0  0  0
 23 24  2  0  0  0
 23 29  1  0  0  0
 24 25  1  0  0  0
 25 26  2  0  0  0
 26 27  1  0  0  0
 26 28  1  0  0  0
 28 29  2  0  0  0
M  END
>  <CHROM.0>
177.52291741,-72.58916160,-44.06609041,66.02883279,167.90827021,58.06041912
-38.47655397,-53.89573565

>  <CHROM.1>
-152.35412409,-112.31094716,123.19112839,96.93759322,90.64119776,117.85920919
133.19755220,-19.55326494,17.44559356,-16.28712880,-0.71577258,-0.32565546
0.95999342

>  <Name>
F6279-0336

>  <RI>
2.9256e+07

>  <Rbt.Current_Directory>
/home/adria/Escritorio/rDock_CMTR_LC/2pxcA_model/inputs_sah

>  <Rbt.Executable>
rbdock ($Id: //depot/dev/client3/rdock/2013.1/src/exe/rbdock.cxx#4 $)

>  <Rbt.Library>
libRbt.so (2013.1, Build901 2013/11/27)

>  <Rbt.Parameter_File>
/home/adria/Escritorio/rDock_2013.1_src/data/scripts/dock.prm

>  <Rbt.Receptor>
sah_rdock.prm

>  <SCORE>
-303.011

>  <SCORE.INTER>
-12.2027

>  <SCORE.INTER.CONST>
1

>  <SCORE.INTER.POLAR>
-0.713143

>  <SCORE.INTER.REPUL>
0

>  <SCORE.INTER.ROT>
7

>  <SCORE.INTER.VDW>
-22.178

>  <SCORE.INTER.norm>
-0.420782

>  <SCORE.INTRA>
-290.723

>  <SCORE.INTRA.DIHEDRAL>
9.80827

>  <SCORE.INTRA.DIHEDRAL.0>
7.9439

>  <SCORE.INTRA.POLAR>
0

>  <SCORE.INTRA.POLAR.0>
0

>  <SCORE.INTRA.REPUL>
0

>  <SCORE.INTRA.REPUL.0>
0

>  <SCORE.INTRA.VDW>
-295.628

>  <SCORE.INTRA.VDW.0>
292.635

>  <SCORE.INTRA.norm>
-10.0249

>  <SCORE.RESTR>
0

>  <SCORE.RESTR.CAVITY>
0

>  <SCORE.RESTR.norm>
0

>  <SCORE.SYSTEM>
-0.0851607

>  <SCORE.SYSTEM.CONST>
0

>  <SCORE.SYSTEM.DIHEDRAL>
6.4186

>  <SCORE.SYSTEM.POLAR>
-3.49552

>  <SCORE.SYSTEM.REPUL>
0.039587

>  <SCORE.SYSTEM.VDW>
8.39237

>  <SCORE.SYSTEM.norm>
-0.00293658

>  <SCORE.heavy>
29

>  <SCORE.norm>
-10.4487

$$$$
F6279-0336
  rDOCK(R)          3D
libRbt.so/2013.1/901 2013/11/27
 29 32  0  0  0  0  0  0  0  0999 V2000
  -18.5405   20.4576  -12.4748 C   0  0  0  0  0  0
  -18.8759   19.7853  -13.7073 N   0  0  0  0  0  0
  -18.1176   20.1260  -14.7461 N   0  0  0  0  0  0
  -17.9637   18.9752  -15.4069 C   0  0  0  0  0  0
  -18.9716   18.0705  -15.0164 C   0  0  0  0  0  0
  -19.6337   18.6651  -13.9499 C   0  0  0  0  0  0
  -20.7366   18.0642  -13.2427 C   0  0  0  0  0  0
  -20.8962   16.8415  -13.2663 O   0  0  0  0  0  0
  -21.6452   18.8530  -12.5683 N   0  0  0  0  0  0
  -21.7424   20.3335  -12.5963 C   0  0  0  0  0  0
  -21.5875   20.9688  -11.1962 C   0  0  0  0  0  0
  -22.8196   21.0536  -10.1798 C   0  0  0  0  0  0
  -23.5702   22.6401   -9.8473 C   0  0  0  0  0  0
  -25.0634   22.5066   -8.7492 C   0  0  0  0  0  0
  -25.5195   21.0757   -8.2235 C   0  0  0  0  0  0
  -24.2559   19.3369   -8.8973 S   0  0  0  0  0  0
  -22.6737   18.1293  -11.8368 C   0  0  0  0  0  0
  -23.8712   18.3690  -12.6057 C   0  0  0  0  0  0
  -24.2204   18.5366  -14.1485 C   0  0  0  0  0  0
  -26.0813   18.6657  -14.3532 C   0  0  0  0  0  0
  -26.8590   18.4140  -12.5209 C   0  0  0  0  0  0
  -25.3047   18.1942  -11.5751 O   0  0  0  0  0  0
  -16.8649   18.8344  -16.3425 C   0  0  0  0  0  0
  -16.8084   17.6824  -17.1504 C   0  0  0  0  0  0
  -15.7484   17.4782  -18.0221 C   0  0  0  0  0  0
  -14.7539   18.4401  -18.1019 C   0  0  0  0  0  0
  -13.7060   18.2301  -18.9069 F   0  0  0  0  0  0
  -14.8220   19.6149  -17.3568 C   0  0  0  0  0  0
  -15.8865   19.8218  -16.4801 C   0  0  0  0  0  0
  1  2  1  0  0  0
  2  3  1  0  0  0
  2  6  1  0  0  0
  3  4  2  0  0  0
  4  5  1  0  0  0
  4 23  1  0  0  0
  5  6  2  0  0  0
  6  7  1  0  0  0
  7  8  2  0  0  0
  7  9  1  0  0  0
  9 10  1  0  0  0
  9 17  1  0  0  0
 10 11  1  0  0  0
 11 12  1  0  0  0
 12 13  2  0  0  0
 12 16  1  0  0  0
 13 14  1  0  0  0
 14 15  2  0  0  0
 15 16  1  0  0  0
 17 18  1  0  0  0
 18 19  2  0  0  0
 18 22  1  0  0  0
 19 20  1  0  0  0
 20 21  2  0  0  0
 21 22  1  0  0  0
 23 24  2  0  0  0
 23 29  1  0  0  0
 24 25  1  0  0  0
 25 26  2  0  0  0
 26 27  1  0  0  0
 26 28  1  0  0  0
 28 29  2  0  0  0
M  END
>  <CHROM.0>
179.68366559,-72.47432172,-47.30913210,62.21509229,-32.28479094,-59.74381998
-37.52314864,-162.32028691

>  <CHROM.1>
-172.34306712,-148.47031277,-121.00122684,-108.60170159,-81.98664474,-108.56919025
35.18920638,-20.72137030,19.22951188,-13.38290710,-0.57309130,0.34943840
0.89037309

>  <Name>
F6279-0336

>  <RI>
2.9256e+07

>  <Rbt.Current_Directory>
/home/adria/Escritorio/rDock_CMTR_LC/2pxcA_model/inputs_sah

>  <Rbt.Executable>
rbdock ($Id: //depot/dev/client3/rdock/2013.1/src/exe/rbdock.cxx#4 $)

>  <Rbt.Library>
libRbt.so (2013.1, Build901 2013/11/27)

>  <Rbt.Parameter_File>
/home/adria/Escritorio/rDock_2013.1_src/data/scripts/dock.prm

>  <Rbt.Receptor>
sah_rdock.prm

>  <SCORE>
-309.419

>  <SCORE.INTER>
-7.95467

>  <SCORE.INTER.CONST>
1

>  <SCORE.INTER.POLAR>
0

>  <SCORE.INTER.REPUL>
0

>  <SCORE.INTER.ROT>
7

>  <SCORE.INTER.VDW>
-20.3547

>  <SCORE.INTER.norm>
-0.274299

>  <SCORE.INTRA>
-294.249

>  <SCORE.INTRA.DIHEDRAL>
0.33312

>  <SCORE.INTRA.DIHEDRAL.0>
7.9439

>  <SCORE.INTRA.POLAR>
0

>  <SCORE.INTRA.POLAR.0>
0

>  <SCORE.INTRA.REPUL>
0

>  <SCORE.INTRA.REPUL.0>
0

>  <SCORE.INTRA.VDW>
-294.415

>  <SCORE.INTRA.VDW.0>
292.635

>  <SCORE.INTRA.norm>
-10.1465

>  <SCORE.RESTR>
0

>  <SCORE.RESTR.CAVITY>
0

>  <SCORE.RESTR.norm>
0

>  <SCORE.SYSTEM>
-7.21588

>  <SCORE.SYSTEM.CONST>
0

>  <SCORE.SYSTEM.DIHEDRAL>
5.87114

>  <SCORE.SYSTEM.POLAR>
-3.94418

>  <SCORE.SYSTEM.REPUL>
0.0375833

>  <SCORE.SYSTEM.VDW>
3.07083

>  <SCORE.SYSTEM.norm>
-0.248824

>  <SCORE.heavy>
29

>  <SCORE.norm>
-10.6696

$$$$
F6279-0336
  rDOCK(R)          3D
libRbt.so/2013.1/901 2013/11/27
 29 32  0  0  0  0  0  0  0  0999 V2000
  -18.0951   20.2131  -12.5493 C   0  0  0  0  0  0
  -19.2635   20.8745  -13.0793 N   0  0  0  0  0  0
  -19.9754   21.5448  -12.1769 N   0  0  0  0  0  0
  -20.3725   22.6328  -12.8427 C   0  0  0  0  0  0
  -20.2752   22.3970  -14.2292 C   0  0  0  0  0  0
  -19.6245   21.1780  -14.3698 C   0  0  0  0  0  0
  -19.3124   20.5662  -15.6371 C   0  0  0  0  0  0
  -19.3694   21.2282  -16.6762 O   0  0  0  0  0  0
  -18.9875   19.2274  -15.7040 N   0  0  0  0  0  0
  -19.0676   18.2292  -14.6088 C   0  0  0  0  0  0
  -20.2239   17.2224  -14.8019 C   0  0  0  0  0  0
  -21.7431   17.6357  -14.5201 C   0  0  0  0  0  0
  -22.1339   19.3440  -14.1733 C   0  0  0  0  0  0
  -23.9612   19.6382  -14.0073 C   0  0  0  0  0  0
  -24.9662   18.4159  -14.1732 C   0  0  0  0  0  0
  -24.0162   16.4185  -14.6005 S   0  0  0  0  0  0
  -18.6261   18.7410  -17.0266 C   0  0  0  0  0  0
  -17.2119   19.0146  -17.1157 C   0  0  0  0  0  0
  -16.1792   19.9408  -16.3374 C   0  0  0  0  0  0
  -14.4445   19.6024  -16.9680 C   0  0  0  0  0  0
  -14.6190   18.1067  -18.2939 C   0  0  0  0  0  0
  -16.4314   17.8509  -18.2039 O   0  0  0  0  0  0
  -20.7983   23.8039  -12.1013 C   0  0  0  0  0  0
  -20.3046   23.9942  -10.7964 C   0  0  0  0  0  0
  -20.7244   25.0711  -10.0287 C   0  0  0  0  0  0
  -21.6234   25.9722  -10.5766 C   0  0  0  0  0  0
  -22.0674   26.9882   -9.8278 F   0  0  0  0  0  0
  -22.0769   25.8362  -11.8866 C   0  0  0  0  0  0
  -21.6562   24.7544  -12.6595 C   0  0  0  0  0  0
  1  2  1  0  0  0
  2  3  1  0  0  0
  2  6  1  0  0  0
  3  4  2  0  0  0
  4  5  1  0  0  0
  4 23  1  0  0  0
  5  6  2  0  0  0
  6  7  1  0  0  0
  7  8  2  0  0  0
  7  9  1  0  0  0
  9 10  1  0  0  0
  9 17  1  0  0  0
 10 11  1  0  0  0
 11 12  1  0  0  0
 12 13  2  0  0  0
 12 16  1  0  0  0
 13 14  1  0  0  0
 14 15  2  0  0  0
 15 16  1  0  0  0
 17 18  1  0  0  0
 18 19  2  0  0  0
 18 22  1  0  0  0
 19 20  1  0  0  0
 20 21  2  0  0  0
 21 22  1  0  0  0
 23 24  2  0  0  0
 23 29  1  0  0  0
 24 25  1  0  0  0
 25 26  2  0  0  0
 26 27  1  0  0  0
 26 28  1  0  0  0
 28 29  2  0  0  0
M  END
>  <CHROM.0>
174.50314967,64.08637589,-128.99796983,-58.50912369,-31.78167541,64.64942659
-36.70712645,-161.53417637

>  <CHROM.1>
25.28561464,-155.99968189,108.13080084,86.66709878,-75.77066312,7.70521206
-17.26054538,-20.10710517,20.73363320,-14.14670316,-1.15300049,0.37662659
0.52763296

>  <Name>
F6279-0336

>  <RI>
2.9256e+07

>  <Rbt.Current_Directory>
/home/adria/Escritorio/rDock_CMTR_LC/2pxcA_model/inputs_sah

>  <Rbt.Executable>
rbdock ($Id: //depot/dev/client3/rdock/2013.1/src/exe/rbdock.cxx#4 $)

>  <Rbt.Library>
libRbt.so (2013.1, Build901 2013/11/27)

>  <Rbt.Parameter_File>
/home/adria/Escritorio/rDock_2013.1_src/data/scripts/dock.prm

>  <Rbt.Receptor>
sah_rdock.prm

>  <SCORE>
-313.28

>  <SCORE.INTER>
-12.745

>  <SCORE.INTER.CONST>
1

>  <SCORE.INTER.POLAR>
0

>  <SCORE.INTER.REPUL>
0

>  <SCORE.INTER.ROT>
7

>  <SCORE.INTER.VDW>
-25.145

>  <SCORE.INTER.norm>
-0.439483

>  <SCORE.INTRA>
-294.534

>  <SCORE.INTRA.DIHEDRAL>
0.0555758

>  <SCORE.INTRA.DIHEDRAL.0>
7.9439

>  <SCORE.INTRA.POLAR>
0

>  <SCORE.INTRA.POLAR.0>
0

>  <SCORE.INTRA.REPUL>
0

>  <SCORE.INTRA.REPUL.0>
0

>  <SCORE.INTRA.VDW>
-294.562

>  <SCORE.INTRA.VDW.0>
292.635

>  <SCORE.INTRA.norm>
-10.1563

>  <SCORE.RESTR>
0

>  <SCORE.RESTR.CAVITY>
0

>  <SCORE.RESTR.norm>
0

>  <SCORE.SYSTEM>
-6.00157

>  <SCORE.SYSTEM.CONST>
0

>  <SCORE.SYSTEM.DIHEDRAL>
8.62541

>  <SCORE.SYSTEM.POLAR>
-4.18216

>  <SCORE.SYSTEM.VDW>
3.90506

>  <SCORE.SYSTEM.norm>
-0.206951

>  <SCORE.heavy>
29

>  <SCORE.norm>
-10.8028

$$$$
F6279-0336
  rDOCK(R)          3D
libRbt.so/2013.1/901 2013/11/27
 29 32  0  0  0  0  0  0  0  0999 V2000
  -22.9370   17.2858  -12.4546 C   0  0  0  0  0  0
  -21.6525   17.9105  -12.2461 N   0  0  0  0  0  0
  -20.6559   17.3690  -12.9417 N   0  0  0  0  0  0
  -19.9157   18.4241  -13.2933 C   0  0  0  0  0  0
  -20.2199   19.5132  -12.4517 C   0  0  0  0  0  0
  -21.3143   19.1213  -11.6915 C   0  0  0  0  0  0
  -21.9547   19.9517  -10.7027 C   0  0  0  0  0  0
  -22.0330   19.5733   -9.5314 O   0  0  0  0  0  0
  -22.5209   21.1563  -11.0645 N   0  0  0  0  0  0
  -22.7112   21.6808  -12.4395 C   0  0  0  0  0  0
  -24.2009   21.8589  -12.8100 C   0  0  0  0  0  0
  -25.2825   22.3033  -11.7187 C   0  0  0  0  0  0
  -26.1414   23.8564  -11.9220 C   0  0  0  0  0  0
  -27.4460   24.1249  -10.6262 C   0  0  0  0  0  0
  -27.6731   23.0172   -9.5068 C   0  0  0  0  0  0
  -26.3403   21.2059   -9.6374 S   0  0  0  0  0  0
  -23.0765   21.9358   -9.9689 C   0  0  0  0  0  0
  -22.5317   23.2555  -10.1791 C   0  0  0  0  0  0
  -22.9911   24.7432   -9.8532 C   0  0  0  0  0  0
  -21.6160   25.9330  -10.3167 C   0  0  0  0  0  0
  -20.0802   24.7945  -10.9257 C   0  0  0  0  0  0
  -20.8448   23.1422  -10.7167 O   0  0  0  0  0  0
  -18.9932   18.3060  -14.4058 C   0  0  0  0  0  0
  -18.1285   19.3820  -14.6840 C   0  0  0  0  0  0
  -17.2658   19.3368  -15.7698 C   0  0  0  0  0  0
  -17.2526   18.2026  -16.5661 C   0  0  0  0  0  0
  -16.4561   18.1689  -17.6407 F   0  0  0  0  0  0
  -18.0557   17.1031  -16.2727 C   0  0  0  0  0  0
  -18.9234   17.1468  -15.1819 C   0  0  0  0  0  0
  1  2  1  0  0  0
  2  3  1  0  0  0
  2  6  1  0  0  0
  3  4  2  0  0  0
  4  5  1  0  0  0
  4 23  1  0  0  0
  5  6  2  0  0  0
  6  7  1  0  0  0
  7  8  2  0  0  0
  7  9  1  0  0  0
  9 10  1  0  0  0
  9 17  1  0  0  0
 10 11  1  0  0  0
 11 12  1  0  0  0
 12 13  2  0  0  0
 12 16  1  0  0  0
 13 14  1  0  0  0
 14 15  2  0  0  0
 15 16  1  0  0  0
 17 18  1  0  0  0
 18 19  2  0  0  0
 18 22  1  0  0  0
 19 20  1  0  0  0
 20 21  2  0  0  0
 21 22  1  0  0  0
 23 24  2  0  0  0
 23 29  1  0  0  0
 24 25  1  0  0  0
 25 26  2  0  0  0
 26 27  1  0  0  0
 26 28  1  0  0  0
 28 29  2  0  0  0
M  END
>  <CHROM.0>
-58.78711310,65.94134529,110.00969910,144.34069024,168.26736999,60.89374571
-34.55915898,-164.14598404

>  <CHROM.1>
-173.97845053,67.66229595,116.30541459,131.40061768,34.58903208,116.85332608
151.61664582,-21.86161869,20.67131061,-12.23754724,0.67282077,-0.47081749
-2.84407304

>  <Name>
F6279-0336

>  <RI>
2.9256e+07

>  <Rbt.Current_Directory>
/home/adria/Escritorio/rDock_CMTR_LC/2pxcA_model/inputs_sah

>  <Rbt.Executable>
rbdock ($Id: //depot/dev/client3/rdock/2013.1/src/exe/rbdock.cxx#4 $)

>  <Rbt.Library>
libRbt.so (2013.1, Build901 2013/11/27)

>  <Rbt.Parameter_File>
/home/adria/Escritorio/rDock_2013.1_src/data/scripts/dock.prm

>  <Rbt.Receptor>
sah_rdock.prm

>  <SCORE>
-301.789

>  <SCORE.INTER>
-13.4915

>  <SCORE.INTER.CONST>
1

>  <SCORE.INTER.POLAR>
-1.61855

>  <SCORE.INTER.REPUL>
0

>  <SCORE.INTER.ROT>
7

>  <SCORE.INTER.VDW>
-20.3885

>  <SCORE.INTER.norm>
-0.465225

>  <SCORE.INTRA>
-289.732

>  <SCORE.INTRA.DIHEDRAL>
7.05819

>  <SCORE.INTRA.DIHEDRAL.0>
7.9439

>  <SCORE.INTRA.POLAR>
0

>  <SCORE.INTRA.POLAR.0>
0

>  <SCORE.INTRA.REPUL>
0

>  <SCORE.INTRA.REPUL.0>
0

>  <SCORE.INTRA.VDW>
-293.261

>  <SCORE.INTRA.VDW.0>
292.635

>  <SCORE.INTRA.norm>
-9.99075

>  <SCORE.RESTR>
0.0919484

>  <SCORE.RESTR.CAVITY>
0.0919484

>  <SCORE.RESTR.norm>
0.00317063

>  <SCORE.SYSTEM>
1.34244

>  <SCORE.SYSTEM.CONST>
0

>  <SCORE.SYSTEM.DIHEDRAL>
10.5835

>  <SCORE.SYSTEM.POLAR>
-4.20437

>  <SCORE.SYSTEM.VDW>
10.3456

>  <SCORE.SYSTEM.norm>
0.0462909

>  <SCORE.heavy>
29

>  <SCORE.norm>
-10.4065

$$$$
F6279-0336
  rDOCK(R)          3D
libRbt.so/2013.1/901 2013/11/27
 29 32  0  0  0  0  0  0  0  0999 V2000
  -18.3787   19.6512  -17.6265 C   0  0  0  0  0  0
  -19.0943   18.6113  -16.9263 N   0  0  0  0  0  0
  -18.8965   17.3860  -17.4058 N   0  0  0  0  0  0
  -18.8646   16.6259  -16.3077 C   0  0  0  0  0  0
  -19.4737   17.3164  -15.2403 C   0  0  0  0  0  0
  -19.7109   18.6060  -15.6985 C   0  0  0  0  0  0
  -20.3178   19.6486  -14.9097 C   0  0  0  0  0  0
  -20.1443   20.8327  -15.2079 O   0  0  0  0  0  0
  -21.0630   19.3337  -13.7925 N   0  0  0  0  0  0
  -21.2109   17.9996  -13.1599 C   0  0  0  0  0  0
  -21.2092   18.0671  -11.6161 C   0  0  0  0  0  0
  -22.4736   18.6176  -10.8057 C   0  0  0  0  0  0
  -24.0868   17.9192  -11.1239 C   0  0  0  0  0  0
  -25.3938   18.5978   -9.9906 C   0  0  0  0  0  0
  -24.9925   19.6835   -8.8989 C   0  0  0  0  0  0
  -22.8209   20.2814   -8.8651 S   0  0  0  0  0  0
  -21.6808   20.4653  -13.1185 C   0  0  0  0  0  0
  -23.0853   20.3115  -13.4122 C   0  0  0  0  0  0
  -23.9713   19.2762  -14.2328 C   0  0  0  0  0  0
  -25.7867   19.6878  -13.9954 C   0  0  0  0  0  0
  -25.8433   21.2110  -12.6907 C   0  0  0  0  0  0
  -24.0441   21.4193  -12.4115 O   0  0  0  0  0  0
  -18.2477   15.3151  -16.3682 C   0  0  0  0  0  0
  -18.2234   14.5250  -15.2029 C   0  0  0  0  0  0
  -17.5976   13.2866  -15.1980 C   0  0  0  0  0  0
  -17.0142   12.8280  -16.3685 C   0  0  0  0  0  0
  -16.3703   11.6551  -16.3607 F   0  0  0  0  0  0
  -17.0802   13.5665  -17.5475 C   0  0  0  0  0  0
  -17.7086   14.8114  -17.5543 C   0  0  0  0  0  0
  1  2  1  0  0  0
  2  3  1  0  0  0
  2  6  1  0  0  0
  3  4  2  0  0  0
  4  5  1  0  0  0
  4 23  1  0  0  0
  5  6  2  0  0  0
  6  7  1  0  0  0
  7  8  2  0  0  0
  7  9  1  0  0  0
  9 10  1  0  0  0
  9 17  1  0  0  0
 10 11  1  0  0  0
 11 12  1  0  0  0
 12 13  2  0  0  0
 12 16  1  0  0  0
 13 14  1  0  0  0
 14 15  2  0  0  0
 15 16  1  0  0  0
 17 18  1  0  0  0
 18 19  2  0  0  0
 18 22  1  0  0  0
 19 20  1  0  0  0
 20 21  2  0  0  0
 21 22  1  0  0  0
 23 24  2  0  0  0
 23 29  1  0  0  0
 24 25  1  0  0  0
 25 26  2  0  0  0
 26 27  1  0  0  0
 26 28  1  0  0  0
 28 29  2  0  0  0
M  END
>  <CHROM.0>
-63.02506967,67.54619276,75.11634625,61.96297729,167.52554607,175.92618919
-37.32407695,-163.60978689

>  <CHROM.1>
-179.92169599,-12.48758003,140.25867512,108.88926399,74.10248126,52.78439763
-0.29760331,-20.89720740,17.94458690,-13.99293256,-0.02733835,0.88388081
-0.74390043

>  <Name>
F6279-0336

>  <RI>
2.9256e+07

>  <Rbt.Current_Directory>
/home/adria/Escritorio/rDock_CMTR_LC/2pxcA_model/inputs_sah

>  <Rbt.Executable>
rbdock ($Id: //depot/dev/client3/rdock/2013.1/src/exe/rbdock.cxx#4 $)

>  <Rbt.Library>
libRbt.so (2013.1, Build901 2013/11/27)

>  <Rbt.Parameter_File>
/home/adria/Escritorio/rDock_2013.1_src/data/scripts/dock.prm

>  <Rbt.Receptor>
sah_rdock.prm

>  <SCORE>
-299.74

>  <SCORE.INTER>
-4.67175

>  <SCORE.INTER.CONST>
1

>  <SCORE.INTER.POLAR>
0

>  <SCORE.INTER.REPUL>
0.050732

>  <SCORE.INTER.ROT>
7

>  <SCORE.INTER.VDW>
-17.3254

>  <SCORE.INTER.norm>
-0.161095

>  <SCORE.INTRA>
-292.662

>  <SCORE.INTRA.DIHEDRAL>
-0.840473

>  <SCORE.INTRA.DIHEDRAL.0>
7.9439

>  <SCORE.INTRA.POLAR>
0

>  <SCORE.INTRA.POLAR.0>
0

>  <SCORE.INTRA.REPUL>
0

>  <SCORE.INTRA.REPUL.0>
0

>  <SCORE.INTRA.VDW>
-292.242

>  <SCORE.INTRA.VDW.0>
292.635

>  <SCORE.INTRA.norm>
-10.0918

>  <SCORE.RESTR>
0

>  <SCORE.RESTR.CAVITY>
0

>  <SCORE.RESTR.norm>
0

>  <SCORE.SYSTEM>
-2.40541

>  <SCORE.SYSTEM.CONST>
0

>  <SCORE.SYSTEM.DIHEDRAL>
3.16688

>  <SCORE.SYSTEM.POLAR>
-3.66824

>  <SCORE.SYSTEM.VDW>
8.48316

>  <SCORE.SYSTEM.norm>
-0.0829452

>  <SCORE.heavy>
29

>  <SCORE.norm>
-10.3358

$$$$
