F2636-0386
  rDOCK(R)          3D
libRbt.so/2013.1/901 2013/11/27
 32 35  0  0  0  0  0  0  0  0999 V2000
  -14.9531   16.9181  -17.6593 C   0  0  0  0  0  0
  -16.3369   16.4295  -16.4743 C   0  0  0  0  0  0
  -17.6718   15.7881  -16.2916 C   0  0  0  0  0  0
  -18.5623   16.5962  -17.1549 C   0  0  0  0  0  0
  -18.9686   18.0007  -16.6499 C   0  0  0  0  0  0
  -18.0853   19.1596  -16.3131 N   0  0  0  0  0  0
  -18.5474   20.5221  -16.6612 C   0  0  0  0  0  0
  -18.7895   21.6778  -15.5285 C   0  0  0  0  0  0
  -19.2019   21.1766  -14.1538 N   0  0  0  0  0  0
  -18.1298   19.9248  -13.8684 C   0  0  0  0  0  0
  -17.3860   19.1995  -15.0301 C   0  0  0  0  0  0
  -20.6798   21.5459  -13.5253 C   0  0  0  0  0  0
  -21.0641   22.8177  -13.3149 N   0  0  0  0  0  0
  -22.2646   22.7845  -12.6395 C   0  0  0  0  0  0
  -22.8023   21.5295  -12.4870 C   0  0  0  0  0  0
  -22.2347   20.7979  -13.4967 N   0  0  0  0  0  0
  -23.0691   19.3393  -13.9163 C   0  0  0  0  0  0
  -23.0954   18.5250  -15.2303 C   0  0  0  0  0  0
  -24.3057   18.1861  -15.8155 C   0  0  0  0  0  0
  -24.3495   17.7166  -17.1395 C   0  0  0  0  0  0
  -25.8835   17.4845  -17.8763 Cl  0  0  0  0  0  0
  -23.1910   17.5281  -17.8959 C   0  0  0  0  0  0
  -21.9617   17.6270  -17.2602 C   0  0  0  0  0  0
  -21.9154   18.0635  -15.9125 C   0  0  0  0  0  0
  -23.7270   21.2387  -11.5015 C   0  0  0  0  0  0
  -23.9684   20.0123  -11.0826 O   0  0  0  0  0  0
  -24.2919   22.2796  -10.9298 N   0  3  0  0  0  0
  -24.9894   22.1350  -10.2094 H   0  0  0  0  0  0
  -23.9166   23.6115  -11.1455 C   0  0  0  0  0  0
  -24.5347   24.4999  -10.5411 O   0  0  0  0  0  0
  -22.8674   23.8408  -12.0153 N   0  3  0  0  0  0
  -22.3142   25.1642  -12.2406 C   0  0  0  0  0  0
  1  2  1  0  0  0
  2  3  1  0  0  0
  3  4  1  0  0  0
  4  5  1  0  0  0
  5  6  1  0  0  0
  6  7  1  0  0  0
  6 11  1  0  0  0
  7  8  1  0  0  0
  8  9  1  0  0  0
  9 10  1  0  0  0
 10 11  1  0  0  0
 12  9  1  0  0  0
 12 13  1  0  0  0
 12 16  1  0  0  0
 14 13  1  0  0  0
 14 15  1  0  0  0
 14 31  1  0  0  0
 15 16  1  0  0  0
 15 25  1  0  0  0
 16 17  1  0  0  0
 17 18  1  0  0  0
 18 19  2  0  0  0
 18 24  1  0  0  0
 19 20  1  0  0  0
 20 21  1  0  0  0
 20 22  2  0  0  0
 22 23  1  0  0  0
 23 24  2  0  0  0
 25 26  2  0  0  0
 25 27  1  0  0  0
 27 28  1  0  0  0
 27 29  1  0  0  0
 29 30  2  0  0  0
 29 31  1  0  0  0
 31 32  1  0  0  0
M  END
>  <CHROM.0>
-63.18812272,-167.74643167,-132.16345945,62.13894230,-31.66637334,-63.16924678
-158.04706220,-161.52895541

>  <CHROM.1>
-59.73865096,-75.02061503,59.54536041,142.30543442,-60.00545896,-50.06006873
-127.69024763,-21.44044057,19.90939599,-14.69650026,-0.98341520,0.02484561
0.73596491

>  <Name>
F2636-0386

>  <RI>
3.30489e+07

>  <Rbt.Current_Directory>
/home/adria/Escritorio/rDock_CMTR_LC/2pxcA_model/inputs_sah

>  <Rbt.Executable>
rbdock ($Id: //depot/dev/client3/rdock/2013.1/src/exe/rbdock.cxx#4 $)

>  <Rbt.Library>
libRbt.so (2013.1, Build901 2013/11/27)

>  <Rbt.Parameter_File>
/home/adria/Escritorio/rDock_2013.1_src/data/scripts/dock.prm

>  <Rbt.Receptor>
sah_rdock.prm

>  <SCORE>
-103.126

>  <SCORE.INTER>
-5.89687

>  <SCORE.INTER.CONST>
1

>  <SCORE.INTER.POLAR>
0

>  <SCORE.INTER.REPUL>
0.150435

>  <SCORE.INTER.ROT>
7

>  <SCORE.INTER.VDW>
-19.049

>  <SCORE.INTER.norm>
-0.190222

>  <SCORE.INTRA>
-91.1752

>  <SCORE.INTRA.DIHEDRAL>
-2.27824

>  <SCORE.INTRA.DIHEDRAL.0>
6.63797

>  <SCORE.INTRA.POLAR>
0

>  <SCORE.INTRA.POLAR.0>
0

>  <SCORE.INTRA.REPUL>
0

>  <SCORE.INTRA.REPUL.0>
0

>  <SCORE.INTRA.VDW>
-90.0361

>  <SCORE.INTRA.VDW.0>
88.3483

>  <SCORE.INTRA.norm>
-2.94114

>  <SCORE.RESTR>
0.00387189

>  <SCORE.RESTR.CAVITY>
0.00387189

>  <SCORE.RESTR.norm>
0.0001249

>  <SCORE.SYSTEM>
-6.05771

>  <SCORE.SYSTEM.CONST>
0

>  <SCORE.SYSTEM.DIHEDRAL>
8.89226

>  <SCORE.SYSTEM.POLAR>
-4.18568

>  <SCORE.SYSTEM.VDW>
3.72747

>  <SCORE.SYSTEM.norm>
-0.19541

>  <SCORE.heavy>
31

>  <SCORE.norm>
-3.32664

$$$$
F2636-0386
  rDOCK(R)          3D
libRbt.so/2013.1/901 2013/11/27
 32 35  0  0  0  0  0  0  0  0999 V2000
  -17.7864   14.2866  -19.6537 C   0  0  0  0  0  0
  -16.3419   14.4347  -18.4500 C   0  0  0  0  0  0
  -15.5471   15.3065  -17.5361 C   0  0  0  0  0  0
  -16.5354   15.7282  -16.5180 C   0  0  0  0  0  0
  -17.5538   16.8218  -16.9175 C   0  0  0  0  0  0
  -17.2875   18.2333  -17.3342 N   0  0  0  0  0  0
  -18.4241   19.0536  -17.8100 C   0  0  0  0  0  0
  -18.8831   20.4308  -17.0548 C   0  0  0  0  0  0
  -18.6189   20.4811  -15.5587 N   0  0  0  0  0  0
  -17.0439   19.9325  -15.4323 C   0  0  0  0  0  0
  -16.3822   19.0706  -16.5495 C   0  0  0  0  0  0
  -19.8627   20.5623  -14.4807 C   0  0  0  0  0  0
  -20.3347   19.4676  -13.8576 N   0  0  0  0  0  0
  -21.4622   19.8391  -13.1583 C   0  0  0  0  0  0
  -21.7208   21.1884  -13.1619 C   0  0  0  0  0  0
  -20.5027   21.7612  -13.4172 N   0  0  0  0  0  0
  -20.3615   23.4312  -12.9804 C   0  0  0  0  0  0
  -20.6394   24.1601  -11.6456 C   0  0  0  0  0  0
  -21.9396   24.2964  -11.1839 C   0  0  0  0  0  0
  -22.1865   24.6813   -9.8550 C   0  0  0  0  0  0
  -23.8058   24.6591   -9.2828 Cl  0  0  0  0  0  0
  -21.1512   24.9851   -8.9686 C   0  0  0  0  0  0
  -19.8614   25.0916   -9.4685 C   0  0  0  0  0  0
  -19.6142   24.7410  -10.8195 C   0  0  0  0  0  0
  -22.9811   21.6979  -12.9119 C   0  0  0  0  0  0
  -23.3505   22.9104  -13.2742 O   0  0  0  0  0  0
  -23.8344   20.8576  -12.3687 N   0  3  0  0  0  0
  -24.7714   21.1725  -12.1468 H   0  0  0  0  0  0
  -23.5977   19.4907  -12.1766 C   0  0  0  0  0  0
  -24.4897   18.8096  -11.6504 O   0  0  0  0  0  0
  -22.3804   18.9930  -12.6017 N   0  3  0  0  0  0
  -22.0563   17.5784  -12.5576 C   0  0  0  0  0  0
  1  2  1  0  0  0
  2  3  1  0  0  0
  3  4  1  0  0  0
  4  5  1  0  0  0
  5  6  1  0  0  0
  6  7  1  0  0  0
  6 11  1  0  0  0
  7  8  1  0  0  0
  8  9  1  0  0  0
  9 10  1  0  0  0
 10 11  1  0  0  0
 12  9  1  0  0  0
 12 13  1  0  0  0
 12 16  1  0  0  0
 14 13  1  0  0  0
 14 15  1  0  0  0
 14 31  1  0  0  0
 15 16  1  0  0  0
 15 25  1  0  0  0
 16 17  1  0  0  0
 17 18  1  0  0  0
 18 19  2  0  0  0
 18 24  1  0  0  0
 19 20  1  0  0  0
 20 21  1  0  0  0
 20 22  2  0  0  0
 22 23  1  0  0  0
 23 24  2  0  0  0
 25 26  2  0  0  0
 25 27  1  0  0  0
 27 28  1  0  0  0
 27 29  1  0  0  0
 29 30  2  0  0  0
 29 31  1  0  0  0
 31 32  1  0  0  0
M  END
>  <CHROM.0>
39.90156174,66.44305780,-165.06877726,62.28540566,-29.67319266,-54.63136797
83.75024109,-164.17481244

>  <CHROM.1>
61.81674093,-76.35963493,-61.62660324,173.57348662,97.62005523,-151.99303382
-69.49954558,-20.37654024,20.52950028,-13.67820905,1.02122577,-0.46655440
-2.63672123

>  <Name>
F2636-0386

>  <RI>
3.30489e+07

>  <Rbt.Current_Directory>
/home/adria/Escritorio/rDock_CMTR_LC/2pxcA_model/inputs_sah

>  <Rbt.Executable>
rbdock ($Id: //depot/dev/client3/rdock/2013.1/src/exe/rbdock.cxx#4 $)

>  <Rbt.Library>
libRbt.so (2013.1, Build901 2013/11/27)

>  <Rbt.Parameter_File>
/home/adria/Escritorio/rDock_2013.1_src/data/scripts/dock.prm

>  <Rbt.Receptor>
sah_rdock.prm

>  <SCORE>
-102.771

>  <SCORE.INTER>
-8.37578

>  <SCORE.INTER.CONST>
1

>  <SCORE.INTER.POLAR>
0

>  <SCORE.INTER.REPUL>
0.250437

>  <SCORE.INTER.ROT>
7

>  <SCORE.INTER.VDW>
-22.028

>  <SCORE.INTER.norm>
-0.270186

>  <SCORE.INTRA>
-91.8079

>  <SCORE.INTRA.DIHEDRAL>
-3.00386

>  <SCORE.INTRA.DIHEDRAL.0>
6.63797

>  <SCORE.INTRA.POLAR>
0

>  <SCORE.INTRA.POLAR.0>
0

>  <SCORE.INTRA.REPUL>
0

>  <SCORE.INTRA.REPUL.0>
0

>  <SCORE.INTRA.VDW>
-90.3059

>  <SCORE.INTRA.VDW.0>
88.3483

>  <SCORE.INTRA.norm>
-2.96154

>  <SCORE.RESTR>
0

>  <SCORE.RESTR.CAVITY>
0

>  <SCORE.RESTR.norm>
0

>  <SCORE.SYSTEM>
-2.5876

>  <SCORE.SYSTEM.CONST>
0

>  <SCORE.SYSTEM.DIHEDRAL>
7.87827

>  <SCORE.SYSTEM.POLAR>
-3.58844

>  <SCORE.SYSTEM.REPUL>
0.123517

>  <SCORE.SYSTEM.VDW>
5.0564

>  <SCORE.SYSTEM.norm>
-0.0834708

>  <SCORE.heavy>
31

>  <SCORE.norm>
-3.3152

$$$$
F2636-0386
  rDOCK(R)          3D
libRbt.so/2013.1/901 2013/11/27
 32 35  0  0  0  0  0  0  0  0999 V2000
  -23.9829   17.2416  -17.3252 C   0  0  0  0  0  0
  -24.0014   16.9371  -15.4638 C   0  0  0  0  0  0
  -24.6854   17.1617  -14.1567 C   0  0  0  0  0  0
  -23.7791   16.5175  -13.1795 C   0  0  0  0  0  0
  -22.3635   17.1176  -13.0113 C   0  0  0  0  0  0
  -21.9779   18.5477  -12.8043 N   0  0  0  0  0  0
  -20.6515   18.8418  -12.2167 C   0  0  0  0  0  0
  -19.5144   19.7048  -13.0165 C   0  0  0  0  0  0
  -19.5510   19.5970  -14.5324 N   0  0  0  0  0  0
  -21.1725   19.8007  -14.8888 C   0  0  0  0  0  0
  -22.2850   19.5450  -13.8278 C   0  0  0  0  0  0
  -18.3023   18.9153  -15.3640 C   0  0  0  0  0  0
  -17.0900   19.4949  -15.4258 N   0  0  0  0  0  0
  -16.3271   18.7727  -16.3171 C   0  0  0  0  0  0
  -16.9215   17.6247  -16.7823 C   0  0  0  0  0  0
  -17.8470   17.3146  -15.8209 N   0  0  0  0  0  0
  -18.4011   15.6737  -15.8256 C   0  0  0  0  0  0
  -17.6286   14.3400  -15.9483 C   0  0  0  0  0  0
  -17.5129   13.7129  -17.1793 C   0  0  0  0  0  0
  -16.5802   12.6783  -17.3664 C   0  0  0  0  0  0
  -16.3492   12.0601  -18.9521 Cl  0  0  0  0  0  0
  -15.7753   12.2112  -16.3253 C   0  0  0  0  0  0
  -16.0390   12.6508  -15.0361 C   0  0  0  0  0  0
  -17.0069   13.6673  -14.8384 C   0  0  0  0  0  0
  -16.5336   17.0205  -17.9634 C   0  0  0  0  0  0
  -17.3005   16.1756  -18.6235 O   0  0  0  0  0  0
  -15.3769   17.4154  -18.4486 N   0  3  0  0  0  0
  -15.0278   17.0011  -19.3046 H   0  0  0  0  0  0
  -14.6179   18.4772  -17.9409 C   0  0  0  0  0  0
  -13.5413   18.7453  -18.4939 O   0  0  0  0  0  0
  -15.1337   19.1633  -16.8577 N   0  3  0  0  0  0
  -14.4979   20.3470  -16.3077 C   0  0  0  0  0  0
  1  2  1  0  0  0
  2  3  1  0  0  0
  3  4  1  0  0  0
  4  5  1  0  0  0
  5  6  1  0  0  0
  6  7  1  0  0  0
  6 11  1  0  0  0
  7  8  1  0  0  0
  8  9  1  0  0  0
  9 10  1  0  0  0
 10 11  1  0  0  0
 12  9  1  0  0  0
 12 13  1  0  0  0
 12 16  1  0  0  0
 14 13  1  0  0  0
 14 15  1  0  0  0
 14 31  1  0  0  0
 15 16  1  0  0  0
 15 25  1  0  0  0
 16 17  1  0  0  0
 17 18  1  0  0  0
 18 19  2  0  0  0
 18 24  1  0  0  0
 19 20  1  0  0  0
 20 21  1  0  0  0
 20 22  2  0  0  0
 22 23  1  0  0  0
 23 24  2  0  0  0
 25 26  2  0  0  0
 25 27  1  0  0  0
 27 28  1  0  0  0
 27 29  1  0  0  0
 29 30  2  0  0  0
 29 31  1  0  0  0
 31 32  1  0  0  0
M  END
>  <CHROM.0>
-61.43714028,-169.06820873,-44.99896783,-58.49294890,168.54315167,-58.04819733
-36.74827954,-160.27750177

>  <CHROM.1>
-176.23930612,64.33325504,49.01431623,159.33846523,-67.57531821,-160.25823648
-96.51443348,-18.40716063,16.84069588,-15.97145440,2.64897729,0.40041082
0.24393876

>  <Name>
F2636-0386

>  <RI>
3.30489e+07

>  <Rbt.Current_Directory>
/home/adria/Escritorio/rDock_CMTR_LC/2pxcA_model/inputs_sah

>  <Rbt.Executable>
rbdock ($Id: //depot/dev/client3/rdock/2013.1/src/exe/rbdock.cxx#4 $)

>  <Rbt.Library>
libRbt.so (2013.1, Build901 2013/11/27)

>  <Rbt.Parameter_File>
/home/adria/Escritorio/rDock_2013.1_src/data/scripts/dock.prm

>  <Rbt.Receptor>
sah_rdock.prm

>  <SCORE>
-105.764

>  <SCORE.INTER>
-12.9879

>  <SCORE.INTER.CONST>
1

>  <SCORE.INTER.POLAR>
-0.452943

>  <SCORE.INTER.REPUL>
0

>  <SCORE.INTER.ROT>
7

>  <SCORE.INTER.VDW>
-23.8479

>  <SCORE.INTER.norm>
-0.418964

>  <SCORE.INTRA>
-91.5795

>  <SCORE.INTRA.DIHEDRAL>
-3.39665

>  <SCORE.INTRA.DIHEDRAL.0>
6.63797

>  <SCORE.INTRA.POLAR>
0

>  <SCORE.INTRA.POLAR.0>
0

>  <SCORE.INTRA.REPUL>
0

>  <SCORE.INTRA.REPUL.0>
0

>  <SCORE.INTRA.VDW>
-89.8812

>  <SCORE.INTRA.VDW.0>
88.3483

>  <SCORE.INTRA.norm>
-2.95418

>  <SCORE.RESTR>
0

>  <SCORE.RESTR.CAVITY>
0

>  <SCORE.RESTR.norm>
0

>  <SCORE.SYSTEM>
-1.1961

>  <SCORE.SYSTEM.CONST>
0

>  <SCORE.SYSTEM.DIHEDRAL>
3.48454

>  <SCORE.SYSTEM.POLAR>
-3.61634

>  <SCORE.SYSTEM.VDW>
9.3572

>  <SCORE.SYSTEM.norm>
-0.0385838

>  <SCORE.heavy>
31

>  <SCORE.norm>
-3.41173

$$$$
F2636-0386
  rDOCK(R)          3D
libRbt.so/2013.1/901 2013/11/27
 32 35  0  0  0  0  0  0  0  0999 V2000
  -23.6961   21.1210   -8.7328 C   0  0  0  0  0  0
  -24.5598   22.0084  -10.1556 C   0  0  0  0  0  0
  -24.5794   23.1735  -11.0878 C   0  0  0  0  0  0
  -24.7268   24.3354  -10.1826 C   0  0  0  0  0  0
  -23.4480   24.8844   -9.5073 C   0  0  0  0  0  0
  -22.1933   25.3783  -10.1542 N   0  0  0  0  0  0
  -20.9583   24.5772   -9.9990 C   0  0  0  0  0  0
  -20.1658   23.9377  -11.2798 C   0  0  0  0  0  0
  -21.0298   23.5851  -12.4798 N   0  0  0  0  0  0
  -21.9876   24.9430  -12.6706 C   0  0  0  0  0  0
  -22.2368   25.9431  -11.5017 C   0  0  0  0  0  0
  -21.1989   22.0216  -12.9722 C   0  0  0  0  0  0
  -22.4038   21.4893  -13.2446 N   0  0  0  0  0  0
  -22.2241   20.1415  -13.4668 C   0  0  0  0  0  0
  -20.9122   19.7342  -13.4913 C   0  0  0  0  0  0
  -20.2150   20.8719  -13.8019 N   0  0  0  0  0  0
  -18.6167   20.6180  -14.4190 C   0  0  0  0  0  0
  -18.1207   19.8829  -15.6856 C   0  0  0  0  0  0
  -16.8514   20.1332  -16.1840 C   0  0  0  0  0  0
  -16.2787   19.2741  -17.1374 C   0  0  0  0  0  0
  -14.6397   19.5239  -17.5860 Cl  0  0  0  0  0  0
  -16.9697   18.1753  -17.6522 C   0  0  0  0  0  0
  -18.3183   18.0425  -17.3548 C   0  0  0  0  0  0
  -18.9097   18.9313  -16.4223 C   0  0  0  0  0  0
  -20.5437   18.4214  -13.2644 C   0  0  0  0  0  0
  -19.3254   18.0694  -12.9045 O   0  0  0  0  0  0
  -21.5165   17.5395  -13.3360 N   0  3  0  0  0  0
  -21.3107   16.5577  -13.1939 H   0  0  0  0  0  0
  -22.8739   17.8561  -13.4728 C   0  0  0  0  0  0
  -23.6902   16.9250  -13.5289 O   0  0  0  0  0  0
  -23.2096   19.1958  -13.5241 N   0  3  0  0  0  0
  -24.5863   19.6556  -13.5563 C   0  0  0  0  0  0
  1  2  1  0  0  0
  2  3  1  0  0  0
  3  4  1  0  0  0
  4  5  1  0  0  0
  5  6  1  0  0  0
  6  7  1  0  0  0
  6 11  1  0  0  0
  7  8  1  0  0  0
  8  9  1  0  0  0
  9 10  1  0  0  0
 10 11  1  0  0  0
 12  9  1  0  0  0
 12 13  1  0  0  0
 12 16  1  0  0  0
 14 13  1  0  0  0
 14 15  1  0  0  0
 14 31  1  0  0  0
 15 16  1  0  0  0
 15 25  1  0  0  0
 16 17  1  0  0  0
 17 18  1  0  0  0
 18 19  2  0  0  0
 18 24  1  0  0  0
 19 20  1  0  0  0
 20 21  1  0  0  0
 20 22  2  0  0  0
 22 23  1  0  0  0
 23 24  2  0  0  0
 25 26  2  0  0  0
 25 27  1  0  0  0
 27 28  1  0  0  0
 27 29  1  0  0  0
 29 30  2  0  0  0
 29 31  1  0  0  0
 31 32  1  0  0  0
M  END
>  <CHROM.0>
-64.21733890,-74.15538541,-163.95829519,-63.09743979,-32.07033221,-58.20056548
-156.14052743,-160.05821651

>  <CHROM.1>
-62.25998880,82.40159307,57.09655509,-111.05826032,132.20253372,-144.20872689
161.05190005,-20.76843865,20.92723914,-13.38499936,2.41127947,0.52433793
0.41444924

>  <Name>
F2636-0386

>  <RI>
3.30489e+07

>  <Rbt.Current_Directory>
/home/adria/Escritorio/rDock_CMTR_LC/2pxcA_model/inputs_sah

>  <Rbt.Executable>
rbdock ($Id: //depot/dev/client3/rdock/2013.1/src/exe/rbdock.cxx#4 $)

>  <Rbt.Library>
libRbt.so (2013.1, Build901 2013/11/27)

>  <Rbt.Parameter_File>
/home/adria/Escritorio/rDock_2013.1_src/data/scripts/dock.prm

>  <Rbt.Receptor>
sah_rdock.prm

>  <SCORE>
-115.099

>  <SCORE.INTER>
-15.6675

>  <SCORE.INTER.CONST>
1

>  <SCORE.INTER.POLAR>
-0.744007

>  <SCORE.INTER.REPUL>
0.00286131

>  <SCORE.INTER.ROT>
7

>  <SCORE.INTER.VDW>
-25.5522

>  <SCORE.INTER.norm>
-0.505403

>  <SCORE.INTRA>
-92.0113

>  <SCORE.INTRA.DIHEDRAL>
-0.0510639

>  <SCORE.INTRA.DIHEDRAL.0>
6.63797

>  <SCORE.INTRA.POLAR>
0

>  <SCORE.INTRA.POLAR.0>
0

>  <SCORE.INTRA.REPUL>
0

>  <SCORE.INTRA.REPUL.0>
0

>  <SCORE.INTRA.VDW>
-91.9858

>  <SCORE.INTRA.VDW.0>
88.3483

>  <SCORE.INTRA.norm>
-2.96811

>  <SCORE.RESTR>
0

>  <SCORE.RESTR.CAVITY>
0

>  <SCORE.RESTR.norm>
0

>  <SCORE.SYSTEM>
-7.41993

>  <SCORE.SYSTEM.CONST>
0

>  <SCORE.SYSTEM.DIHEDRAL>
6.68581

>  <SCORE.SYSTEM.POLAR>
-4.06675

>  <SCORE.SYSTEM.REPUL>
0.0405332

>  <SCORE.SYSTEM.VDW>
2.86145

>  <SCORE.SYSTEM.norm>
-0.239353

>  <SCORE.heavy>
31

>  <SCORE.norm>
-3.71286

$$$$
F2636-0386
  rDOCK(R)          3D
libRbt.so/2013.1/901 2013/11/27
 32 35  0  0  0  0  0  0  0  0999 V2000
  -14.5884   19.3777  -17.5100 C   0  0  0  0  0  0
  -15.1729   17.5957  -17.7119 C   0  0  0  0  0  0
  -16.1804   16.5523  -17.3610 C   0  0  0  0  0  0
  -17.4441   17.0982  -17.9053 C   0  0  0  0  0  0
  -18.2402   18.0837  -17.0177 C   0  0  0  0  0  0
  -17.7904   19.3889  -16.4424 N   0  0  0  0  0  0
  -18.6155   20.5917  -16.6950 C   0  0  0  0  0  0
  -19.3031   21.4489  -15.4827 C   0  0  0  0  0  0
  -19.6646   20.6553  -14.2376 N   0  0  0  0  0  0
  -18.2902   19.7448  -13.9550 C   0  0  0  0  0  0
  -17.2571   19.4455  -15.0827 C   0  0  0  0  0  0
  -21.2352   20.4804  -13.7703 C   0  0  0  0  0  0
  -21.9500   19.3837  -14.0795 N   0  0  0  0  0  0
  -23.2528   19.6123  -13.6939 C   0  0  0  0  0  0
  -23.4490   20.7825  -13.0014 C   0  0  0  0  0  0
  -22.2159   21.0728  -12.4798 N   0  0  0  0  0  0
  -22.2156   22.1755  -11.1442 C   0  0  0  0  0  0
  -21.4226   23.4807  -10.9035 C   0  0  0  0  0  0
  -22.0312   24.5613  -10.2839 C   0  0  0  0  0  0
  -21.2592   25.6286   -9.7938 C   0  0  0  0  0  0
  -22.0411   26.8520   -8.8763 Cl  0  0  0  0  0  0
  -19.8721   25.6701   -9.9489 C   0  0  0  0  0  0
  -19.2692   24.7290  -10.7710 C   0  0  0  0  0  0
  -20.0522   23.6720  -11.2991 C   0  0  0  0  0  0
  -24.6877   21.3902  -12.9172 C   0  0  0  0  0  0
  -24.8441   22.6623  -12.6090 O   0  0  0  0  0  0
  -25.7115   20.6397  -13.2607 N   0  3  0  0  0  0
  -26.6487   21.0206  -13.2077 H   0  0  0  0  0  0
  -25.6119   19.3631  -13.8280 C   0  0  0  0  0  0
  -26.6596   18.7613  -14.1049 O   0  0  0  0  0  0
  -24.3415   18.8667  -14.0511 N   0  3  0  0  0  0
  -24.1035   17.6055  -14.7300 C   0  0  0  0  0  0
  1  2  1  0  0  0
  2  3  1  0  0  0
  3  4  1  0  0  0
  4  5  1  0  0  0
  5  6  1  0  0  0
  6  7  1  0  0  0
  6 11  1  0  0  0
  7  8  1  0  0  0
  8  9  1  0  0  0
  9 10  1  0  0  0
 10 11  1  0  0  0
 12  9  1  0  0  0
 12 13  1  0  0  0
 12 16  1  0  0  0
 14 13  1  0  0  0
 14 15  1  0  0  0
 14 31  1  0  0  0
 15 16  1  0  0  0
 15 25  1  0  0  0
 16 17  1  0  0  0
 17 18  1  0  0  0
 18 19  2  0  0  0
 18 24  1  0  0  0
 19 20  1  0  0  0
 20 21  1  0  0  0
 20 22  2  0  0  0
 22 23  1  0  0  0
 23 24  2  0  0  0
 25 26  2  0  0  0
 25 27  1  0  0  0
 27 28  1  0  0  0
 27 29  1  0  0  0
 29 30  2  0  0  0
 29 31  1  0  0  0
 31 32  1  0  0  0
M  END
>  <CHROM.0>
-175.78946547,-72.51744771,-45.56352085,-62.22328181,168.68264159,-65.33196860
-37.24932757,-162.78509093

>  <CHROM.1>
62.49662988,-85.30672943,58.31969887,126.59375728,97.27702807,26.69397432
141.59380741,-20.98164462,21.09825601,-13.54636839,-1.01169344,0.20819649
0.67881935

>  <Name>
F2636-0386

>  <RI>
3.30489e+07

>  <Rbt.Current_Directory>
/home/adria/Escritorio/rDock_CMTR_LC/2pxcA_model/inputs_sah

>  <Rbt.Executable>
rbdock ($Id: //depot/dev/client3/rdock/2013.1/src/exe/rbdock.cxx#4 $)

>  <Rbt.Library>
libRbt.so (2013.1, Build901 2013/11/27)

>  <Rbt.Parameter_File>
/home/adria/Escritorio/rDock_2013.1_src/data/scripts/dock.prm

>  <Rbt.Receptor>
sah_rdock.prm

>  <SCORE>
-105.024

>  <SCORE.INTER>
-12.9438

>  <SCORE.INTER.CONST>
1

>  <SCORE.INTER.POLAR>
0

>  <SCORE.INTER.REPUL>
0

>  <SCORE.INTER.ROT>
7

>  <SCORE.INTER.VDW>
-25.3438

>  <SCORE.INTER.norm>
-0.417542

>  <SCORE.INTRA>
-90.0897

>  <SCORE.INTRA.DIHEDRAL>
1.31314

>  <SCORE.INTRA.DIHEDRAL.0>
6.63797

>  <SCORE.INTRA.POLAR>
0

>  <SCORE.INTRA.POLAR.0>
0

>  <SCORE.INTRA.REPUL>
0

>  <SCORE.INTRA.REPUL.0>
0

>  <SCORE.INTRA.VDW>
-90.7463

>  <SCORE.INTRA.VDW.0>
88.3483

>  <SCORE.INTRA.norm>
-2.90612

>  <SCORE.RESTR>
0

>  <SCORE.RESTR.CAVITY>
0

>  <SCORE.RESTR.norm>
0

>  <SCORE.SYSTEM>
-1.99079

>  <SCORE.SYSTEM.CONST>
0

>  <SCORE.SYSTEM.DIHEDRAL>
3.58454

>  <SCORE.SYSTEM.POLAR>
-3.88353

>  <SCORE.SYSTEM.REPUL>
0.0376624

>  <SCORE.SYSTEM.VDW>
9.23264

>  <SCORE.SYSTEM.norm>
-0.0642189

>  <SCORE.heavy>
31

>  <SCORE.norm>
-3.38788

$$$$
F2636-0386
  rDOCK(R)          3D
libRbt.so/2013.1/901 2013/11/27
 32 35  0  0  0  0  0  0  0  0999 V2000
  -26.7492   24.0953   -9.9632 C   0  0  0  0  0  0
  -25.0128   23.7843  -10.6312 C   0  0  0  0  0  0
  -23.7294   23.0336  -10.5043 C   0  0  0  0  0  0
  -23.2538   23.3929   -9.1493 C   0  0  0  0  0  0
  -22.6739   24.8124   -8.9463 C   0  0  0  0  0  0
  -21.5831   25.4900   -9.7130 N   0  0  0  0  0  0
  -20.2567   24.8362   -9.7779 C   0  0  0  0  0  0
  -19.5811   24.3709  -11.1937 C   0  0  0  0  0  0
  -20.5569   23.9853  -12.2938 N   0  0  0  0  0  0
  -21.6777   25.2264  -12.2597 C   0  0  0  0  0  0
  -21.8743   26.1211  -10.9989 C   0  0  0  0  0  0
  -20.6158   22.4434  -12.8722 C   0  0  0  0  0  0
  -21.7039   21.6679  -12.7168 N   0  0  0  0  0  0
  -21.3814   20.4032  -13.1579 C   0  0  0  0  0  0
  -20.1429   20.2983  -13.7431 C   0  0  0  0  0  0
  -19.8598   21.5734  -14.1565 N   0  0  0  0  0  0
  -18.6358   21.7042  -15.3749 C   0  0  0  0  0  0
  -17.9814   20.6333  -16.2779 C   0  0  0  0  0  0
  -16.6024   20.4923  -16.3039 C   0  0  0  0  0  0
  -16.0141   19.3510  -16.8753 C   0  0  0  0  0  0
  -14.3167   19.1392  -16.7202 Cl  0  0  0  0  0  0
  -16.7774   18.3473  -17.4751 C   0  0  0  0  0  0
  -18.1308   18.5762  -17.6773 C   0  0  0  0  0  0
  -18.7210   19.7456  -17.1357 C   0  0  0  0  0  0
  -19.4751   19.0922  -13.8438 C   0  0  0  0  0  0
  -18.1737   19.0057  -14.0349 O   0  0  0  0  0  0
  -20.2084   18.0199  -13.6396 N   0  3  0  0  0  0
  -19.7826   17.1035  -13.7128 H   0  0  0  0  0  0
  -21.5364   18.0325  -13.1950 C   0  0  0  0  0  0
  -22.1143   16.9464  -13.0438 O   0  0  0  0  0  0
  -22.1083   19.2654  -12.9435 N   0  3  0  0  0  0
  -23.4378   19.4092  -12.3782 C   0  0  0  0  0  0
  1  2  1  0  0  0
  2  3  1  0  0  0
  3  4  1  0  0  0
  4  5  1  0  0  0
  5  6  1  0  0  0
  6  7  1  0  0  0
  6 11  1  0  0  0
  7  8  1  0  0  0
  8  9  1  0  0  0
  9 10  1  0  0  0
 10 11  1  0  0  0
 12  9  1  0  0  0
 12 13  1  0  0  0
 12 16  1  0  0  0
 14 13  1  0  0  0
 14 15  1  0  0  0
 14 31  1  0  0  0
 15 16  1  0  0  0
 15 25  1  0  0  0
 16 17  1  0  0  0
 17 18  1  0  0  0
 18 19  2  0  0  0
 18 24  1  0  0  0
 19 20  1  0  0  0
 20 21  1  0  0  0
 20 22  2  0  0  0
 22 23  1  0  0  0
 23 24  2  0  0  0
 25 26  2  0  0  0
 25 27  1  0  0  0
 27 28  1  0  0  0
 27 29  1  0  0  0
 29 30  2  0  0  0
 29 31  1  0  0  0
 31 32  1  0  0  0
M  END
>  <CHROM.0>
171.24359613,-166.36039637,-44.10120041,67.82539996,-30.89815683,61.55441866
-156.34783198,-160.94597724

>  <CHROM.1>
-59.48821257,-74.14108650,-53.46062635,-57.39588733,115.21842309,167.69895396
-125.47389026,-20.25735498,21.30984828,-13.28798278,2.36951360,0.49350947
0.42558735

>  <Name>
F2636-0386

>  <RI>
3.30489e+07

>  <Rbt.Current_Directory>
/home/adria/Escritorio/rDock_CMTR_LC/2pxcA_model/inputs_sah

>  <Rbt.Executable>
rbdock ($Id: //depot/dev/client3/rdock/2013.1/src/exe/rbdock.cxx#4 $)

>  <Rbt.Library>
libRbt.so (2013.1, Build901 2013/11/27)

>  <Rbt.Parameter_File>
/home/adria/Escritorio/rDock_2013.1_src/data/scripts/dock.prm

>  <Rbt.Receptor>
sah_rdock.prm

>  <SCORE>
-114.897

>  <SCORE.INTER>
-16.1448

>  <SCORE.INTER.CONST>
1

>  <SCORE.INTER.POLAR>
0

>  <SCORE.INTER.REPUL>
0.00389258

>  <SCORE.INTER.ROT>
7

>  <SCORE.INTER.VDW>
-28.5643

>  <SCORE.INTER.norm>
-0.5208

>  <SCORE.INTRA>
-92.9074

>  <SCORE.INTRA.DIHEDRAL>
-2.17584

>  <SCORE.INTRA.DIHEDRAL.0>
6.63797

>  <SCORE.INTRA.POLAR>
0

>  <SCORE.INTRA.POLAR.0>
0

>  <SCORE.INTRA.REPUL>
0

>  <SCORE.INTRA.REPUL.0>
0

>  <SCORE.INTRA.VDW>
-91.8195

>  <SCORE.INTRA.VDW.0>
88.3483

>  <SCORE.INTRA.norm>
-2.99701

>  <SCORE.RESTR>
0

>  <SCORE.RESTR.CAVITY>
0

>  <SCORE.RESTR.norm>
0

>  <SCORE.SYSTEM>
-5.84475

>  <SCORE.SYSTEM.CONST>
0

>  <SCORE.SYSTEM.DIHEDRAL>
7.29915

>  <SCORE.SYSTEM.POLAR>
-3.72199

>  <SCORE.SYSTEM.VDW>
3.16046

>  <SCORE.SYSTEM.norm>
-0.18854

>  <SCORE.heavy>
31

>  <SCORE.norm>
-3.70635

$$$$
F2636-0386
  rDOCK(R)          3D
libRbt.so/2013.1/901 2013/11/27
 32 35  0  0  0  0  0  0  0  0999 V2000
  -16.1776   16.0192  -16.3424 C   0  0  0  0  0  0
  -16.3145   17.9003  -16.3602 C   0  0  0  0  0  0
  -16.2157   19.1638  -17.1480 C   0  0  0  0  0  0
  -16.5434   20.2133  -16.1567 C   0  0  0  0  0  0
  -18.0182   20.3393  -15.7075 C   0  0  0  0  0  0
  -18.8641   19.3300  -14.9987 N   0  0  0  0  0  0
  -18.8290   19.2958  -13.5192 C   0  0  0  0  0  0
  -20.1622   19.5600  -12.6081 C   0  0  0  0  0  0
  -21.2047   20.4829  -13.2182 N   0  0  0  0  0  0
  -21.3503   19.9099  -14.7828 C   0  0  0  0  0  0
  -20.2269   19.0651  -15.4560 C   0  0  0  0  0  0
  -21.5643   21.9327  -12.5222 C   0  0  0  0  0  0
  -20.6052   22.8023  -12.1571 N   0  0  0  0  0  0
  -21.2129   23.8284  -11.4670 C   0  0  0  0  0  0
  -22.5856   23.7752  -11.4519 C   0  0  0  0  0  0
  -22.9029   23.0215  -12.5510 N   0  0  0  0  0  0
  -24.5294   23.1892  -13.1219 C   0  0  0  0  0  0
  -25.3581   22.3246  -14.0998 C   0  0  0  0  0  0
  -25.5477   22.7410  -15.4085 C   0  0  0  0  0  0
  -26.0324   21.8457  -16.3773 C   0  0  0  0  0  0
  -26.0770   22.3570  -18.0164 Cl  0  0  0  0  0  0
  -26.3842   20.5320  -16.0601 C   0  0  0  0  0  0
  -26.4340   20.1644  -14.7231 C   0  0  0  0  0  0
  -25.9819   21.0789  -13.7391 C   0  0  0  0  0  0
  -23.3376   24.4224  -10.4894 C   0  0  0  0  0  0
  -24.5842   24.0955  -10.2121 O   0  0  0  0  0  0
  -22.6984   25.3336   -9.7891 N   0  3  0  0  0  0
  -23.1961   25.8548   -9.0771 H   0  0  0  0  0  0
  -21.3196   25.5703   -9.8548 C   0  0  0  0  0  0
  -20.8433   26.4631   -9.1388 O   0  0  0  0  0  0
  -20.5810   24.7768  -10.7121 N   0  3  0  0  0  0
  -19.1332   24.8497  -10.7918 C   0  0  0  0  0  0
  1  2  1  0  0  0
  2  3  1  0  0  0
  3  4  1  0  0  0
  4  5  1  0  0  0
  5  6  1  0  0  0
  6  7  1  0  0  0
  6 11  1  0  0  0
  7  8  1  0  0  0
  8  9  1  0  0  0
  9 10  1  0  0  0
 10 11  1  0  0  0
 12  9  1  0  0  0
 12 13  1  0  0  0
 12 16  1  0  0  0
 14 13  1  0  0  0
 14 15  1  0  0  0
 14 31  1  0  0  0
 15 16  1  0  0  0
 15 25  1  0  0  0
 16 17  1  0  0  0
 17 18  1  0  0  0
 18 19  2  0  0  0
 18 24  1  0  0  0
 19 20  1  0  0  0
 20 21  1  0  0  0
 20 22  2  0  0  0
 22 23  1  0  0  0
 23 24  2  0  0  0
 25 26  2  0  0  0
 25 27  1  0  0  0
 27 28  1  0  0  0
 27 29  1  0  0  0
 29 30  2  0  0  0
 29 31  1  0  0  0
 31 32  1  0  0  0
M  END
>  <CHROM.0>
178.53916123,-71.86276454,-8.45707270,59.17866383,-30.00965872,-175.89088021
82.54800204,-161.83792815

>  <CHROM.1>
179.80330095,-72.79394221,62.16912963,87.48184096,49.10688356,-10.39512690
-102.25643856,-21.78805865,21.84372357,-13.70041994,0.74891899,0.26866757
-2.25561499

>  <Name>
F2636-0386

>  <RI>
3.30489e+07

>  <Rbt.Current_Directory>
/home/adria/Escritorio/rDock_CMTR_LC/2pxcA_model/inputs_sah

>  <Rbt.Executable>
rbdock ($Id: //depot/dev/client3/rdock/2013.1/src/exe/rbdock.cxx#4 $)

>  <Rbt.Library>
libRbt.so (2013.1, Build901 2013/11/27)

>  <Rbt.Parameter_File>
/home/adria/Escritorio/rDock_2013.1_src/data/scripts/dock.prm

>  <Rbt.Receptor>
sah_rdock.prm

>  <SCORE>
-105.763

>  <SCORE.INTER>
-8.29694

>  <SCORE.INTER.CONST>
1

>  <SCORE.INTER.POLAR>
-1.17847

>  <SCORE.INTER.REPUL>
0.937035

>  <SCORE.INTER.ROT>
7

>  <SCORE.INTER.VDW>
-21.3753

>  <SCORE.INTER.norm>
-0.267643

>  <SCORE.INTRA>
-90.6004

>  <SCORE.INTRA.DIHEDRAL>
-1.20313

>  <SCORE.INTRA.DIHEDRAL.0>
6.63797

>  <SCORE.INTRA.POLAR>
0

>  <SCORE.INTRA.POLAR.0>
0

>  <SCORE.INTRA.REPUL>
0

>  <SCORE.INTRA.REPUL.0>
0

>  <SCORE.INTRA.VDW>
-89.9988

>  <SCORE.INTRA.VDW.0>
88.3483

>  <SCORE.INTRA.norm>
-2.92259

>  <SCORE.RESTR>
0

>  <SCORE.RESTR.CAVITY>
0

>  <SCORE.RESTR.norm>
0

>  <SCORE.SYSTEM>
-6.86586

>  <SCORE.SYSTEM.CONST>
0

>  <SCORE.SYSTEM.DIHEDRAL>
9.33434

>  <SCORE.SYSTEM.POLAR>
-4.54873

>  <SCORE.SYSTEM.REPUL>
0.0364417

>  <SCORE.SYSTEM.VDW>
3.75044

>  <SCORE.SYSTEM.norm>
-0.221479

>  <SCORE.heavy>
31

>  <SCORE.norm>
-3.41172

$$$$
F2636-0386
  rDOCK(R)          3D
libRbt.so/2013.1/901 2013/11/27
 32 35  0  0  0  0  0  0  0  0999 V2000
  -14.3958   20.0924  -17.1774 C   0  0  0  0  0  0
  -15.9540   19.8486  -16.1429 C   0  0  0  0  0  0
  -17.3416   20.2989  -15.8288 C   0  0  0  0  0  0
  -17.8635   19.2218  -14.9578 C   0  0  0  0  0  0
  -19.3776   19.2265  -14.6413 C   0  0  0  0  0  0
  -20.1911   18.1656  -13.9708 N   0  0  0  0  0  0
  -20.4327   18.2781  -12.5148 C   0  0  0  0  0  0
  -21.9383   18.4085  -11.8873 C   0  0  0  0  0  0
  -22.9661   19.0886  -12.7772 N   0  0  0  0  0  0
  -22.7296   18.3538  -14.2610 C   0  0  0  0  0  0
  -21.3909   17.6418  -14.6209 C   0  0  0  0  0  0
  -23.6527   20.5207  -12.3373 C   0  0  0  0  0  0
  -24.6980   20.5770  -11.4925 N   0  0  0  0  0  0
  -25.1358   21.8829  -11.4568 C   0  0  0  0  0  0
  -24.3469   22.7713  -12.1467 C   0  0  0  0  0  0
  -23.1233   22.1577  -12.2029 N   0  0  0  0  0  0
  -21.7830   23.2031  -12.5351 C   0  0  0  0  0  0
  -21.0036   24.1783  -11.6228 C   0  0  0  0  0  0
  -19.7581   23.8240  -11.1277 C   0  0  0  0  0  0
  -18.9173   24.7938  -10.5553 C   0  0  0  0  0  0
  -17.3179   24.3402  -10.1240 Cl  0  0  0  0  0  0
  -19.3116   26.1264  -10.4186 C   0  0  0  0  0  0
  -20.6334   26.4562  -10.6812 C   0  0  0  0  0  0
  -21.4957   25.4701  -11.2228 C   0  0  0  0  0  0
  -24.8241   23.9905  -12.5900 C   0  0  0  0  0  0
  -24.2471   24.6800  -13.5541 O   0  0  0  0  0  0
  -25.9581   24.3842  -12.0531 N   0  3  0  0  0  0
  -26.3550   25.2759  -12.3244 H   0  0  0  0  0  0
  -26.7550   23.6035  -11.2063 C   0  0  0  0  0  0
  -27.8033   24.0982  -10.7673 O   0  0  0  0  0  0
  -26.3173   22.3225  -10.9280 N   0  3  0  0  0  0
  -27.1035   21.3791  -10.1536 C   0  0  0  0  0  0
  1  2  1  0  0  0
  2  3  1  0  0  0
  3  4  1  0  0  0
  4  5  1  0  0  0
  5  6  1  0  0  0
  6  7  1  0  0  0
  6 11  1  0  0  0
  7  8  1  0  0  0
  8  9  1  0  0  0
  9 10  1  0  0  0
 10 11  1  0  0  0
 12  9  1  0  0  0
 12 13  1  0  0  0
 12 16  1  0  0  0
 14 13  1  0  0  0
 14 15  1  0  0  0
 14 31  1  0  0  0
 15 16  1  0  0  0
 15 25  1  0  0  0
 16 17  1  0  0  0
 17 18  1  0  0  0
 18 19  2  0  0  0
 18 24  1  0  0  0
 19 20  1  0  0  0
 20 21  1  0  0  0
 20 22  2  0  0  0
 22 23  1  0  0  0
 23 24  2  0  0  0
 25 26  2  0  0  0
 25 27  1  0  0  0
 27 28  1  0  0  0
 27 29  1  0  0  0
 29 30  2  0  0  0
 29 31  1  0  0  0
 31 32  1  0  0  0
M  END
>  <CHROM.0>
-179.85018962,-169.49432102,-166.97454637,-61.53387050,-31.26290798,60.96524368
-156.12680126,-161.95559517

>  <CHROM.1>
169.48001302,-169.16683996,170.07914698,95.44483215,-82.50934492,-127.16286024
102.60104697,-21.69745422,21.98507767,-12.43893815,0.46415572,-0.17654783
-2.65459421

>  <Name>
F2636-0386

>  <RI>
3.30489e+07

>  <Rbt.Current_Directory>
/home/adria/Escritorio/rDock_CMTR_LC/2pxcA_model/inputs_sah

>  <Rbt.Executable>
rbdock ($Id: //depot/dev/client3/rdock/2013.1/src/exe/rbdock.cxx#4 $)

>  <Rbt.Library>
libRbt.so (2013.1, Build901 2013/11/27)

>  <Rbt.Parameter_File>
/home/adria/Escritorio/rDock_2013.1_src/data/scripts/dock.prm

>  <Rbt.Receptor>
sah_rdock.prm

>  <SCORE>
-109.393

>  <SCORE.INTER>
-13.2595

>  <SCORE.INTER.CONST>
1

>  <SCORE.INTER.POLAR>
0

>  <SCORE.INTER.REPUL>
0.000472996

>  <SCORE.INTER.ROT>
7

>  <SCORE.INTER.VDW>
-25.6618

>  <SCORE.INTER.norm>
-0.427724

>  <SCORE.INTRA>
-90.4297

>  <SCORE.INTRA.DIHEDRAL>
0.0190264

>  <SCORE.INTRA.DIHEDRAL.0>
6.63797

>  <SCORE.INTRA.POLAR>
0

>  <SCORE.INTRA.POLAR.0>
0

>  <SCORE.INTRA.REPUL>
0

>  <SCORE.INTRA.REPUL.0>
0

>  <SCORE.INTRA.VDW>
-90.4392

>  <SCORE.INTRA.VDW.0>
88.3483

>  <SCORE.INTRA.norm>
-2.91709

>  <SCORE.RESTR>
0.179102

>  <SCORE.RESTR.CAVITY>
0.179102

>  <SCORE.RESTR.norm>
0.00577749

>  <SCORE.SYSTEM>
-5.88268

>  <SCORE.SYSTEM.CONST>
0

>  <SCORE.SYSTEM.DIHEDRAL>
6.00293

>  <SCORE.SYSTEM.POLAR>
-3.69547

>  <SCORE.SYSTEM.VDW>
3.68046

>  <SCORE.SYSTEM.norm>
-0.189764

>  <SCORE.heavy>
31

>  <SCORE.norm>
-3.5288

$$$$
F2636-0386
  rDOCK(R)          3D
libRbt.so/2013.1/901 2013/11/27
 32 35  0  0  0  0  0  0  0  0999 V2000
  -24.9866   23.2153   -8.4431 C   0  0  0  0  0  0
  -25.0632   22.4223  -10.1529 C   0  0  0  0  0  0
  -25.8448   22.1974  -11.4040 C   0  0  0  0  0  0
  -25.0057   21.2460  -12.1669 C   0  0  0  0  0  0
  -23.7158   21.7937  -12.8217 C   0  0  0  0  0  0
  -22.5187   22.3956  -12.1574 N   0  0  0  0  0  0
  -21.6184   21.5070  -11.3887 C   0  0  0  0  0  0
  -20.0423   21.3098  -11.7816 C   0  0  0  0  0  0
  -19.7063   21.4676  -13.2558 N   0  0  0  0  0  0
  -20.5147   22.8685  -13.6819 C   0  0  0  0  0  0
  -21.7227   23.4035  -12.8552 C   0  0  0  0  0  0
  -19.1351   20.1967  -14.1356 C   0  0  0  0  0  0
  -17.8876   20.1850  -14.6386 N   0  0  0  0  0  0
  -17.7747   19.0763  -15.4487 C   0  0  0  0  0  0
  -18.8609   18.2354  -15.4247 C   0  0  0  0  0  0
  -19.4658   18.5054  -14.2255 N   0  0  0  0  0  0
  -20.5442   17.2804  -13.6456 C   0  0  0  0  0  0
  -21.8739   17.3835  -12.8635 C   0  0  0  0  0  0
  -21.9367   18.1197  -11.6904 C   0  0  0  0  0  0
  -23.1795   18.4688  -11.1347 C   0  0  0  0  0  0
  -23.2044   19.5319   -9.7859 Cl  0  0  0  0  0  0
  -24.3861   18.0561  -11.7036 C   0  0  0  0  0  0
  -24.3493   17.1239  -12.7306 C   0  0  0  0  0  0
  -23.0955   16.7396  -13.2686 C   0  0  0  0  0  0
  -19.1276   17.3467  -16.4492 C   0  0  0  0  0  0
  -20.3188   16.8189  -16.6502 O   0  0  0  0  0  0
  -18.1341   17.1280  -17.2825 N   0  3  0  0  0  0
  -18.2597   16.4759  -18.0476 H   0  0  0  0  0  0
  -16.9214   17.8285  -17.2818 C   0  0  0  0  0  0
  -16.0660   17.5205  -18.1243 O   0  0  0  0  0  0
  -16.7689   18.8294  -16.3410 N   0  3  0  0  0  0
  -15.6058   19.6977  -16.3056 C   0  0  0  0  0  0
  1  2  1  0  0  0
  2  3  1  0  0  0
  3  4  1  0  0  0
  4  5  1  0  0  0
  5  6  1  0  0  0
  6  7  1  0  0  0
  6 11  1  0  0  0
  7  8  1  0  0  0
  8  9  1  0  0  0
  9 10  1  0  0  0
 10 11  1  0  0  0
 12  9  1  0  0  0
 12 13  1  0  0  0
 12 16  1  0  0  0
 14 13  1  0  0  0
 14 15  1  0  0  0
 14 31  1  0  0  0
 15 16  1  0  0  0
 15 25  1  0  0  0
 16 17  1  0  0  0
 17 18  1  0  0  0
 18 19  2  0  0  0
 18 24  1  0  0  0
 19 20  1  0  0  0
 20 21  1  0  0  0
 20 22  2  0  0  0
 22 23  1  0  0  0
 23 24  2  0  0  0
 25 26  2  0  0  0
 25 27  1  0  0  0
 27 28  1  0  0  0
 27 29  1  0  0  0
 29 30  2  0  0  0
 29 31  1  0  0  0
 31 32  1  0  0  0
M  END
>  <CHROM.0>
-60.28847021,68.70504486,75.61172905,60.64372082,-28.76661376,-176.00204176
-36.43349264,-163.30537396

>  <CHROM.1>
-174.42571143,-73.64410495,62.34715621,71.26630890,-113.91577737,10.12016729
-52.73152029,-21.02834924,19.64088281,-13.36806137,-2.61022118,-0.59996629
-2.81281880

>  <Name>
F2636-0386

>  <RI>
3.30489e+07

>  <Rbt.Current_Directory>
/home/adria/Escritorio/rDock_CMTR_LC/2pxcA_model/inputs_sah

>  <Rbt.Executable>
rbdock ($Id: //depot/dev/client3/rdock/2013.1/src/exe/rbdock.cxx#4 $)

>  <Rbt.Library>
libRbt.so (2013.1, Build901 2013/11/27)

>  <Rbt.Parameter_File>
/home/adria/Escritorio/rDock_2013.1_src/data/scripts/dock.prm

>  <Rbt.Receptor>
sah_rdock.prm

>  <SCORE>
-106.532

>  <SCORE.INTER>
-6.83205

>  <SCORE.INTER.CONST>
1

>  <SCORE.INTER.POLAR>
0

>  <SCORE.INTER.REPUL>
0.082088

>  <SCORE.INTER.ROT>
7

>  <SCORE.INTER.VDW>
-19.6425

>  <SCORE.INTER.norm>
-0.220389

>  <SCORE.INTRA>
-92.4106

>  <SCORE.INTRA.DIHEDRAL>
-1.10583

>  <SCORE.INTRA.DIHEDRAL.0>
6.63797

>  <SCORE.INTRA.POLAR>
0

>  <SCORE.INTRA.POLAR.0>
0

>  <SCORE.INTRA.REPUL>
0

>  <SCORE.INTRA.REPUL.0>
0

>  <SCORE.INTRA.VDW>
-91.8577

>  <SCORE.INTRA.VDW.0>
88.3483

>  <SCORE.INTRA.norm>
-2.98099

>  <SCORE.RESTR>
0

>  <SCORE.RESTR.CAVITY>
0

>  <SCORE.RESTR.norm>
0

>  <SCORE.SYSTEM>
-7.28917

>  <SCORE.SYSTEM.CONST>
0

>  <SCORE.SYSTEM.DIHEDRAL>
6.4116

>  <SCORE.SYSTEM.POLAR>
-3.79555

>  <SCORE.SYSTEM.VDW>
2.40991

>  <SCORE.SYSTEM.norm>
-0.235135

>  <SCORE.heavy>
31

>  <SCORE.norm>
-3.43651

$$$$
F2636-0386
  rDOCK(R)          3D
libRbt.so/2013.1/901 2013/11/27
 32 35  0  0  0  0  0  0  0  0999 V2000
  -23.4013   20.3729   -8.5961 C   0  0  0  0  0  0
  -23.8644   22.0702   -9.2761 C   0  0  0  0  0  0
  -24.2131   22.8983  -10.4676 C   0  0  0  0  0  0
  -24.4288   24.2472   -9.8972 C   0  0  0  0  0  0
  -23.1860   25.0218   -9.3991 C   0  0  0  0  0  0
  -21.9908   25.4646  -10.1814 N   0  0  0  0  0  0
  -20.7516   24.6600  -10.0903 C   0  0  0  0  0  0
  -20.0799   23.9408  -11.3975 C   0  0  0  0  0  0
  -21.0491   23.5306  -12.4944 N   0  0  0  0  0  0
  -22.0119   24.8860  -12.6771 C   0  0  0  0  0  0
  -22.1504   25.9531  -11.5498 C   0  0  0  0  0  0
  -21.2704   21.9438  -12.8800 C   0  0  0  0  0  0
  -22.4950   21.4281  -13.0891 N   0  0  0  0  0  0
  -22.3555   20.0644  -13.2272 C   0  0  0  0  0  0
  -21.0556   19.6208  -13.2555 C   0  0  0  0  0  0
  -20.3373   20.7166  -13.6556 N   0  0  0  0  0  0
  -18.7620   20.3800  -14.2917 C   0  0  0  0  0  0
  -18.2988   19.4009  -15.3951 C   0  0  0  0  0  0
  -18.3158   18.0338  -15.1651 C   0  0  0  0  0  0
  -18.1879   17.1304  -16.2341 C   0  0  0  0  0  0
  -18.3970   15.4548  -15.9204 Cl  0  0  0  0  0  0
  -17.9933   17.5620  -17.5477 C   0  0  0  0  0  0
  -17.7316   18.9061  -17.7712 C   0  0  0  0  0  0
  -17.8217   19.8157  -16.6878 C   0  0  0  0  0  0
  -20.7155   18.3158  -12.9522 C   0  0  0  0  0  0
  -19.4980   17.9546  -12.5984 O   0  0  0  0  0  0
  -21.7121   17.4579  -12.9437 N   0  3  0  0  0  0
  -21.5281   16.4821  -12.7428 H   0  0  0  0  0  0
  -23.0638   17.8019  -13.0693 C   0  0  0  0  0  0
  -23.9050   16.8917  -13.0458 O   0  0  0  0  0  0
  -23.3662   19.1442  -13.1999 N   0  3  0  0  0  0
  -24.7310   19.6383  -13.2301 C   0  0  0  0  0  0
  1  2  1  0  0  0
  2  3  1  0  0  0
  3  4  1  0  0  0
  4  5  1  0  0  0
  5  6  1  0  0  0
  6  7  1  0  0  0
  6 11  1  0  0  0
  7  8  1  0  0  0
  8  9  1  0  0  0
  9 10  1  0  0  0
 10 11  1  0  0  0
 12  9  1  0  0  0
 12 13  1  0  0  0
 12 16  1  0  0  0
 14 13  1  0  0  0
 14 15  1  0  0  0
 14 31  1  0  0  0
 15 16  1  0  0  0
 15 25  1  0  0  0
 16 17  1  0  0  0
 17 18  1  0  0  0
 18 19  2  0  0  0
 18 24  1  0  0  0
 19 20  1  0  0  0
 20 21  1  0  0  0
 20 22  2  0  0  0
 22 23  1  0  0  0
 23 24  2  0  0  0
 25 26  2  0  0  0
 25 27  1  0  0  0
 27 28  1  0  0  0
 27 29  1  0  0  0
 29 30  2  0  0  0
 29 31  1  0  0  0
 31 32  1  0  0  0
M  END
>  <CHROM.0>
-61.35903301,-165.74339552,-45.15951479,62.50356599,168.29199478,60.82505050
-158.82174533,-53.35539918

>  <CHROM.1>
179.75992959,71.43776901,61.00808354,-100.39200858,136.07559173,-153.85105127
-71.11995177,-21.12905559,20.44224604,-13.04239527,2.13459381,0.64059571
0.30960831

>  <Name>
F2636-0386

>  <RI>
3.30489e+07

>  <Rbt.Current_Directory>
/home/adria/Escritorio/rDock_CMTR_LC/2pxcA_model/inputs_sah

>  <Rbt.Executable>
rbdock ($Id: //depot/dev/client3/rdock/2013.1/src/exe/rbdock.cxx#4 $)

>  <Rbt.Library>
libRbt.so (2013.1, Build901 2013/11/27)

>  <Rbt.Parameter_File>
/home/adria/Escritorio/rDock_2013.1_src/data/scripts/dock.prm

>  <Rbt.Receptor>
sah_rdock.prm

>  <SCORE>
-106.868

>  <SCORE.INTER>
-14.8632

>  <SCORE.INTER.CONST>
1

>  <SCORE.INTER.POLAR>
-0.69875

>  <SCORE.INTER.REPUL>
0

>  <SCORE.INTER.ROT>
7

>  <SCORE.INTER.VDW>
-24.8875

>  <SCORE.INTER.norm>
-0.47946

>  <SCORE.INTRA>
-92.5926

>  <SCORE.INTRA.DIHEDRAL>
-2.22791

>  <SCORE.INTRA.DIHEDRAL.0>
6.63797

>  <SCORE.INTRA.POLAR>
0

>  <SCORE.INTRA.POLAR.0>
0

>  <SCORE.INTRA.REPUL>
0

>  <SCORE.INTRA.REPUL.0>
0

>  <SCORE.INTRA.VDW>
-91.4787

>  <SCORE.INTRA.VDW.0>
88.3483

>  <SCORE.INTRA.norm>
-2.98686

>  <SCORE.RESTR>
0

>  <SCORE.RESTR.CAVITY>
0

>  <SCORE.RESTR.norm>
0

>  <SCORE.SYSTEM>
0.588277

>  <SCORE.SYSTEM.CONST>
0

>  <SCORE.SYSTEM.DIHEDRAL>
6.25709

>  <SCORE.SYSTEM.POLAR>
-3.2466

>  <SCORE.SYSTEM.REPUL>
0.00317645

>  <SCORE.SYSTEM.VDW>
8.48227

>  <SCORE.SYSTEM.norm>
0.0189767

>  <SCORE.heavy>
31

>  <SCORE.norm>
-3.44734

$$$$
F2636-0386
  rDOCK(R)          3D
libRbt.so/2013.1/901 2013/11/27
 32 35  0  0  0  0  0  0  0  0999 V2000
  -14.2994   18.4134  -18.2340 C   0  0  0  0  0  0
  -15.8219   18.6856  -17.1542 C   0  0  0  0  0  0
  -16.7980   18.1094  -16.1837 C   0  0  0  0  0  0
  -17.7051   19.2430  -15.8948 C   0  0  0  0  0  0
  -18.7275   19.0683  -14.7473 C   0  0  0  0  0  0
  -19.8443   18.0794  -14.6391 N   0  0  0  0  0  0
  -20.4855   17.8825  -13.3196 C   0  0  0  0  0  0
  -22.0746   18.1807  -13.0681 C   0  0  0  0  0  0
  -22.6874   19.2648  -13.9399 N   0  0  0  0  0  0
  -22.1312   18.8815  -15.4701 C   0  0  0  0  0  0
  -20.8611   18.0047  -15.6865 C   0  0  0  0  0  0
  -23.2627   20.6601  -13.2782 C   0  0  0  0  0  0
  -24.4317   20.7017  -12.6140 N   0  0  0  0  0  0
  -24.7047   22.0224  -12.3322 C   0  0  0  0  0  0
  -23.6985   22.8986  -12.6595 C   0  0  0  0  0  0
  -22.5705   22.1212  -12.6748 N   0  0  0  0  0  0
  -21.0738   22.9819  -12.5375 C   0  0  0  0  0  0
  -20.6103   24.0618  -11.5328 C   0  0  0  0  0  0
  -21.5231   24.9660  -11.0118 C   0  0  0  0  0  0
  -21.1909   25.7478   -9.8922 C   0  0  0  0  0  0
  -22.4153   26.7167   -9.1767 Cl  0  0  0  0  0  0
  -19.9308   25.6845   -9.2936 C   0  0  0  0  0  0
  -18.9274   24.9739   -9.9364 C   0  0  0  0  0  0
  -19.2500   24.2143  -11.0889 C   0  0  0  0  0  0
  -23.9317   24.2456  -12.8638 C   0  0  0  0  0  0
  -23.1055   25.0240  -13.5341 O   0  0  0  0  0  0
  -25.0886   24.6929  -12.4270 N   0  3  0  0  0  0
  -25.3157   25.6746  -12.5329 H   0  0  0  0  0  0
  -26.1186   23.8879  -11.9245 C   0  0  0  0  0  0
  -27.1614   24.4396  -11.5442 O   0  0  0  0  0  0
  -25.9008   22.5233  -11.8994 N   0  3  0  0  0  0
  -26.9270   21.5755  -11.5037 C   0  0  0  0  0  0
  1  2  1  0  0  0
  2  3  1  0  0  0
  3  4  1  0  0  0
  4  5  1  0  0  0
  5  6  1  0  0  0
  6  7  1  0  0  0
  6 11  1  0  0  0
  7  8  1  0  0  0
  8  9  1  0  0  0
  9 10  1  0  0  0
 10 11  1  0  0  0
 12  9  1  0  0  0
 12 13  1  0  0  0
 12 16  1  0  0  0
 14 13  1  0  0  0
 14 15  1  0  0  0
 14 31  1  0  0  0
 15 16  1  0  0  0
 15 25  1  0  0  0
 16 17  1  0  0  0
 17 18  1  0  0  0
 18 19  2  0  0  0
 18 24  1  0  0  0
 19 20  1  0  0  0
 20 21  1  0  0  0
 20 22  2  0  0  0
 22 23  1  0  0  0
 23 24  2  0  0  0
 25 26  2  0  0  0
 25 27  1  0  0  0
 27 28  1  0  0  0
 27 29  1  0  0  0
 29 30  2  0  0  0
 29 31  1  0  0  0
 31 32  1  0  0  0
M  END
>  <CHROM.0>
-66.64368910,65.66849609,-47.18657598,63.45776229,167.69253533,177.65930039
-157.14277892,-161.08372959

>  <CHROM.1>
179.82700191,-170.82488950,-62.27819305,165.47092325,-75.50874536,-155.55765583
-33.13440702,-21.76338157,22.05194909,-12.84277347,-0.93795798,0.11399358
0.58877392

>  <Name>
F2636-0386

>  <RI>
3.30489e+07

>  <Rbt.Current_Directory>
/home/adria/Escritorio/rDock_CMTR_LC/2pxcA_model/inputs_sah

>  <Rbt.Executable>
rbdock ($Id: //depot/dev/client3/rdock/2013.1/src/exe/rbdock.cxx#4 $)

>  <Rbt.Library>
libRbt.so (2013.1, Build901 2013/11/27)

>  <Rbt.Parameter_File>
/home/adria/Escritorio/rDock_2013.1_src/data/scripts/dock.prm

>  <Rbt.Receptor>
sah_rdock.prm

>  <SCORE>
-109.687

>  <SCORE.INTER>
-14.5218

>  <SCORE.INTER.CONST>
1

>  <SCORE.INTER.POLAR>
-0.901271

>  <SCORE.INTER.REPUL>
0

>  <SCORE.INTER.ROT>
7

>  <SCORE.INTER.VDW>
-23.8575

>  <SCORE.INTER.norm>
-0.468445

>  <SCORE.INTRA>
-92.7499

>  <SCORE.INTRA.DIHEDRAL>
-3.62428

>  <SCORE.INTRA.DIHEDRAL.0>
6.63797

>  <SCORE.INTRA.POLAR>
0

>  <SCORE.INTRA.POLAR.0>
0

>  <SCORE.INTRA.REPUL>
0

>  <SCORE.INTRA.REPUL.0>
0

>  <SCORE.INTRA.VDW>
-90.9377

>  <SCORE.INTRA.VDW.0>
88.3483

>  <SCORE.INTRA.norm>
-2.99193

>  <SCORE.RESTR>
0

>  <SCORE.RESTR.CAVITY>
0

>  <SCORE.RESTR.norm>
0

>  <SCORE.SYSTEM>
-2.41538

>  <SCORE.SYSTEM.CONST>
0

>  <SCORE.SYSTEM.DIHEDRAL>
3.20448

>  <SCORE.SYSTEM.POLAR>
-3.66319

>  <SCORE.SYSTEM.VDW>
8.43724

>  <SCORE.SYSTEM.norm>
-0.0779156

>  <SCORE.heavy>
31

>  <SCORE.norm>
-3.53829

$$$$
F2636-0386
  rDOCK(R)          3D
libRbt.so/2013.1/901 2013/11/27
 32 35  0  0  0  0  0  0  0  0999 V2000
  -26.8532   20.2144   -9.7636 C   0  0  0  0  0  0
  -26.0906   21.8907   -9.3558 C   0  0  0  0  0  0
  -26.2697   23.2434   -8.7518 C   0  0  0  0  0  0
  -24.9459   23.8798   -8.9358 C   0  0  0  0  0  0
  -24.5508   24.3107  -10.3678 C   0  0  0  0  0  0
  -23.2471   24.8665  -10.8456 N   0  0  0  0  0  0
  -21.9994   24.1746  -10.4510 C   0  0  0  0  0  0
  -20.9724   23.5318  -11.5509 C   0  0  0  0  0  0
  -21.6098   23.0485  -12.8435 N   0  0  0  0  0  0
  -22.6175   24.3146  -13.2669 C   0  0  0  0  0  0
  -23.1167   25.3532  -12.2177 C   0  0  0  0  0  0
  -21.5901   21.4524  -13.2531 C   0  0  0  0  0  0
  -22.7128   20.7913  -13.5877 N   0  0  0  0  0  0
  -22.3901   19.4578  -13.7136 C   0  0  0  0  0  0
  -21.0486   19.1801  -13.6096 C   0  0  0  0  0  0
  -20.4367   20.3628  -13.9317 N   0  0  0  0  0  0
  -18.7752   20.2346  -14.4038 C   0  0  0  0  0  0
  -18.1188   19.6000  -15.6515 C   0  0  0  0  0  0
  -16.8861   20.0526  -16.0962 C   0  0  0  0  0  0
  -16.1470   19.3044  -17.0285 C   0  0  0  0  0  0
  -14.5515   19.8144  -17.4083 Cl  0  0  0  0  0  0
  -16.6343   18.1156  -17.5755 C   0  0  0  0  0  0
  -17.9558   17.7685  -17.3343 C   0  0  0  0  0  0
  -18.7172   18.5433  -16.4237 C   0  0  0  0  0  0
  -20.5800   17.9233  -13.2758 C   0  0  0  0  0  0
  -19.3690   17.7113  -12.7999 O   0  0  0  0  0  0
  -21.4568   16.9479  -13.3713 N   0  3  0  0  0  0
  -21.1732   15.9997  -13.1546 H   0  0  0  0  0  0
  -22.8212   17.1227  -13.6340 C   0  0  0  0  0  0
  -23.5396   16.1145  -13.6987 O   0  0  0  0  0  0
  -23.2748   18.4186  -13.7920 N   0  3  0  0  0  0
  -24.6807   18.7393  -13.9608 C   0  0  0  0  0  0
  1  2  1  0  0  0
  2  3  1  0  0  0
  3  4  1  0  0  0
  4  5  1  0  0  0
  5  6  1  0  0  0
  6  7  1  0  0  0
  6 11  1  0  0  0
  7  8  1  0  0  0
  8  9  1  0  0  0
  9 10  1  0  0  0
 10 11  1  0  0  0
 12  9  1  0  0  0
 12 13  1  0  0  0
 12 16  1  0  0  0
 14 13  1  0  0  0
 14 15  1  0  0  0
 14 31  1  0  0  0
 15 16  1  0  0  0
 15 25  1  0  0  0
 16 17  1  0  0  0
 17 18  1  0  0  0
 18 19  2  0  0  0
 18 24  1  0  0  0
 19 20  1  0  0  0
 20 21  1  0  0  0
 20 22  2  0  0  0
 22 23  1  0  0  0
 23 24  2  0  0  0
 25 26  2  0  0  0
 25 27  1  0  0  0
 27 28  1  0  0  0
 27 29  1  0  0  0
 29 30  2  0  0  0
 29 31  1  0  0  0
 31 32  1  0  0  0
M  END
>  <CHROM.0>
177.95934650,-166.71112601,-45.09796057,64.11299693,29.49201632,60.24947904
-157.63661937,-160.44552883

>  <CHROM.1>
179.32651858,72.41464035,-174.59310912,48.35644109,127.78417741,-137.59711690
154.07077377,-21.17790278,20.50791981,-13.44581420,2.58531475,0.53065350
0.31324743

>  <Name>
F2636-0386

>  <RI>
3.30489e+07

>  <Rbt.Current_Directory>
/home/adria/Escritorio/rDock_CMTR_LC/2pxcA_model/inputs_sah

>  <Rbt.Executable>
rbdock ($Id: //depot/dev/client3/rdock/2013.1/src/exe/rbdock.cxx#4 $)

>  <Rbt.Library>
libRbt.so (2013.1, Build901 2013/11/27)

>  <Rbt.Parameter_File>
/home/adria/Escritorio/rDock_2013.1_src/data/scripts/dock.prm

>  <Rbt.Receptor>
sah_rdock.prm

>  <SCORE>
-101.923

>  <SCORE.INTER>
-16.5824

>  <SCORE.INTER.CONST>
1

>  <SCORE.INTER.POLAR>
-1.67897

>  <SCORE.INTER.REPUL>
0.0245043

>  <SCORE.INTER.ROT>
7

>  <SCORE.INTER.VDW>
-23.3965

>  <SCORE.INTER.norm>
-0.534917

>  <SCORE.INTRA>
-91.1781

>  <SCORE.INTRA.DIHEDRAL>
-2.6996

>  <SCORE.INTRA.DIHEDRAL.0>
6.63797

>  <SCORE.INTRA.POLAR>
0

>  <SCORE.INTRA.POLAR.0>
0

>  <SCORE.INTRA.REPUL>
0

>  <SCORE.INTRA.REPUL.0>
0

>  <SCORE.INTRA.VDW>
-89.8283

>  <SCORE.INTRA.VDW.0>
88.3483

>  <SCORE.INTRA.norm>
-2.94123

>  <SCORE.RESTR>
0

>  <SCORE.RESTR.CAVITY>
0

>  <SCORE.RESTR.norm>
0

>  <SCORE.SYSTEM>
5.83704

>  <SCORE.SYSTEM.CONST>
0

>  <SCORE.SYSTEM.DIHEDRAL>
6.79433

>  <SCORE.SYSTEM.POLAR>
-3.43547

>  <SCORE.SYSTEM.VDW>
14.1205

>  <SCORE.SYSTEM.norm>
0.188292

>  <SCORE.heavy>
31

>  <SCORE.norm>
-3.28785

$$$$
F2636-0386
  rDOCK(R)          3D
libRbt.so/2013.1/901 2013/11/27
 32 35  0  0  0  0  0  0  0  0999 V2000
  -19.3270   12.5945  -19.2114 C   0  0  0  0  0  0
  -18.3165   14.1854  -19.1348 C   0  0  0  0  0  0
  -17.5861   15.1751  -18.2899 C   0  0  0  0  0  0
  -18.6085   15.6139  -17.3134 C   0  0  0  0  0  0
  -18.2293   16.7583  -16.3443 C   0  0  0  0  0  0
  -17.8416   18.1650  -16.6724 N   0  0  0  0  0  0
  -18.8685   19.0627  -17.2476 C   0  0  0  0  0  0
  -19.3423   20.4389  -16.5001 C   0  0  0  0  0  0
  -19.2575   20.4269  -14.9823 N   0  0  0  0  0  0
  -17.7398   19.7867  -14.6917 C   0  0  0  0  0  0
  -16.9946   18.9247  -15.7549 C   0  0  0  0  0  0
  -20.6158   20.5439  -14.0566 C   0  0  0  0  0  0
  -21.1490   19.4740  -13.4399 N   0  0  0  0  0  0
  -22.3505   19.8648  -12.8906 C   0  0  0  0  0  0
  -22.6148   21.2096  -12.9868 C   0  0  0  0  0  0
  -21.3790   21.7835  -13.1297 N   0  0  0  0  0  0
  -21.2978   23.4733  -12.7588 C   0  0  0  0  0  0
  -21.7407   24.2614  -11.5046 C   0  0  0  0  0  0
  -22.4922   23.6386  -10.5199 C   0  0  0  0  0  0
  -22.6470   24.2364   -9.2575 C   0  0  0  0  0  0
  -23.4319   23.3429   -8.0183 Cl  0  0  0  0  0  0
  -22.0999   25.4860   -8.9589 C   0  0  0  0  0  0
  -21.5544   26.2340   -9.9924 C   0  0  0  0  0  0
  -21.4315   25.6484  -11.2773 C   0  0  0  0  0  0
  -23.8983   21.7161  -12.9048 C   0  0  0  0  0  0
  -24.2312   22.9065  -13.3631 O   0  0  0  0  0  0
  -24.8027   20.8923  -12.4225 N   0  3  0  0  0  0
  -25.7606   21.2067  -12.3228 H   0  0  0  0  0  0
  -24.5814   19.5385  -12.1408 C   0  0  0  0  0  0
  -25.5233   18.8724  -11.6873 O   0  0  0  0  0  0
  -23.3210   19.0351  -12.4020 N   0  3  0  0  0  0
  -22.9957   17.6278  -12.2551 C   0  0  0  0  0  0
  1  2  1  0  0  0
  2  3  1  0  0  0
  3  4  1  0  0  0
  4  5  1  0  0  0
  5  6  1  0  0  0
  6  7  1  0  0  0
  6 11  1  0  0  0
  7  8  1  0  0  0
  8  9  1  0  0  0
  9 10  1  0  0  0
 10 11  1  0  0  0
 12  9  1  0  0  0
 12 13  1  0  0  0
 12 16  1  0  0  0
 14 13  1  0  0  0
 14 15  1  0  0  0
 14 31  1  0  0  0
 15 16  1  0  0  0
 15 25  1  0  0  0
 16 17  1  0  0  0
 17 18  1  0  0  0
 18 19  2  0  0  0
 18 24  1  0  0  0
 19 20  1  0  0  0
 20 21  1  0  0  0
 20 22  2  0  0  0
 22 23  1  0  0  0
 23 24  2  0  0  0
 25 26  2  0  0  0
 25 27  1  0  0  0
 27 28  1  0  0  0
 27 29  1  0  0  0
 29 30  2  0  0  0
 29 31  1  0  0  0
 31 32  1  0  0  0
M  END
>  <CHROM.0>
41.09747047,-70.35577817,-7.53839912,64.77848636,-31.49038717,-56.90305801
-156.96819468,-162.74228596

>  <CHROM.1>
-56.27255807,-174.39360867,61.31449596,67.74742282,103.53128462,-152.61202549
-9.69819252,-21.27306400,20.39548884,-13.41753801,1.10261765,-0.52566424
-2.61779504

>  <Name>
F2636-0386

>  <RI>
3.30489e+07

>  <Rbt.Current_Directory>
/home/adria/Escritorio/rDock_CMTR_LC/2pxcA_model/inputs_sah

>  <Rbt.Executable>
rbdock ($Id: //depot/dev/client3/rdock/2013.1/src/exe/rbdock.cxx#4 $)

>  <Rbt.Library>
libRbt.so (2013.1, Build901 2013/11/27)

>  <Rbt.Parameter_File>
/home/adria/Escritorio/rDock_2013.1_src/data/scripts/dock.prm

>  <Rbt.Receptor>
sah_rdock.prm

>  <SCORE>
-103.888

>  <SCORE.INTER>
-8.08748

>  <SCORE.INTER.CONST>
1

>  <SCORE.INTER.POLAR>
0

>  <SCORE.INTER.REPUL>
0.18023

>  <SCORE.INTER.ROT>
7

>  <SCORE.INTER.VDW>
-21.3886

>  <SCORE.INTER.norm>
-0.260886

>  <SCORE.INTRA>
-92.6261

>  <SCORE.INTRA.DIHEDRAL>
-3.46355

>  <SCORE.INTRA.DIHEDRAL.0>
6.63797

>  <SCORE.INTRA.POLAR>
0

>  <SCORE.INTRA.POLAR.0>
0

>  <SCORE.INTRA.REPUL>
0

>  <SCORE.INTRA.REPUL.0>
0

>  <SCORE.INTRA.VDW>
-90.8943

>  <SCORE.INTRA.VDW.0>
88.3483

>  <SCORE.INTRA.norm>
-2.98794

>  <SCORE.RESTR>
0

>  <SCORE.RESTR.CAVITY>
0

>  <SCORE.RESTR.norm>
0

>  <SCORE.SYSTEM>
-3.17482

>  <SCORE.SYSTEM.CONST>
0

>  <SCORE.SYSTEM.DIHEDRAL>
10.6374

>  <SCORE.SYSTEM.POLAR>
-4.54823

>  <SCORE.SYSTEM.REPUL>
0.152924

>  <SCORE.SYSTEM.VDW>
6.20587

>  <SCORE.SYSTEM.norm>
-0.102414

>  <SCORE.heavy>
31

>  <SCORE.norm>
-3.35124

$$$$
F2636-0386
  rDOCK(R)          3D
libRbt.so/2013.1/901 2013/11/27
 32 35  0  0  0  0  0  0  0  0999 V2000
  -24.4332   20.0120   -8.4405 C   0  0  0  0  0  0
  -25.0453   21.7911   -8.3059 C   0  0  0  0  0  0
  -24.7055   23.2277   -8.0877 C   0  0  0  0  0  0
  -23.7301   23.5172   -9.1629 C   0  0  0  0  0  0
  -23.0812   24.9211   -9.1828 C   0  0  0  0  0  0
  -22.0008   25.4339  -10.0809 N   0  0  0  0  0  0
  -20.7184   24.6963  -10.1324 C   0  0  0  0  0  0
  -20.1525   24.0247  -11.5130 C   0  0  0  0  0  0
  -21.2098   23.5719  -12.5068 N   0  0  0  0  0  0
  -22.2566   24.8751  -12.5681 C   0  0  0  0  0  0
  -22.3304   25.9241  -11.4180 C   0  0  0  0  0  0
  -21.3872   21.9786  -12.8885 C   0  0  0  0  0  0
  -22.5954   21.4338  -13.1182 N   0  0  0  0  0  0
  -22.4220   20.0731  -13.2468 C   0  0  0  0  0  0
  -21.1118   19.6595  -13.2483 C   0  0  0  0  0  0
  -20.4115   20.7699  -13.6402 N   0  0  0  0  0  0
  -18.8170   20.4668  -14.2447 C   0  0  0  0  0  0
  -18.3077   19.4785  -15.3191 C   0  0  0  0  0  0
  -18.4678   18.1130  -15.1412 C   0  0  0  0  0  0
  -18.2878   17.2287  -16.2186 C   0  0  0  0  0  0
  -18.6743   15.5707  -15.9913 Cl  0  0  0  0  0  0
  -17.8994   17.6740  -17.4838 C   0  0  0  0  0  0
  -17.4999   18.9950  -17.6269 C   0  0  0  0  0  0
  -17.6438   19.8817  -16.5305 C   0  0  0  0  0  0
  -20.7476   18.3642  -12.9321 C   0  0  0  0  0  0
  -19.5291   18.0329  -12.5535 O   0  0  0  0  0  0
  -21.7242   17.4835  -12.9382 N   0  3  0  0  0  0
  -21.5216   16.5132  -12.7289 H   0  0  0  0  0  0
  -23.0808   17.7956  -13.0911 C   0  0  0  0  0  0
  -23.9011   16.8663  -13.0789 O   0  0  0  0  0  0
  -23.4114   19.1299  -13.2341 N   0  3  0  0  0  0
  -24.7865   19.5922  -13.2926 C   0  0  0  0  0  0
  1  2  1  0  0  0
  2  3  1  0  0  0
  3  4  1  0  0  0
  4  5  1  0  0  0
  5  6  1  0  0  0
  6  7  1  0  0  0
  6 11  1  0  0  0
  7  8  1  0  0  0
  8  9  1  0  0  0
  9 10  1  0  0  0
 10 11  1  0  0  0
 12  9  1  0  0  0
 12 13  1  0  0  0
 12 16  1  0  0  0
 14 13  1  0  0  0
 14 15  1  0  0  0
 14 31  1  0  0  0
 15 16  1  0  0  0
 15 25  1  0  0  0
 16 17  1  0  0  0
 17 18  1  0  0  0
 18 19  2  0  0  0
 18 24  1  0  0  0
 19 20  1  0  0  0
 20 21  1  0  0  0
 20 22  2  0  0  0
 22 23  1  0  0  0
 23 24  2  0  0  0
 25 26  2  0  0  0
 25 27  1  0  0  0
 27 28  1  0  0  0
 27 29  1  0  0  0
 29 30  2  0  0  0
 29 31  1  0  0  0
 31 32  1  0  0  0
M  END
>  <CHROM.0>
41.32129927,-69.57482912,-45.12273435,62.92728990,168.51983128,-63.56978071
-36.44378151,-113.59732015

>  <CHROM.1>
57.84339141,-176.00123660,174.79173118,-56.07096930,143.50945886,-154.91253333
-61.66073755,-21.24549391,20.44134066,-12.89114554,2.18327641,0.67934896
0.33541871

>  <Name>
F2636-0386

>  <RI>
3.30489e+07

>  <Rbt.Current_Directory>
/home/adria/Escritorio/rDock_CMTR_LC/2pxcA_model/inputs_sah

>  <Rbt.Executable>
rbdock ($Id: //depot/dev/client3/rdock/2013.1/src/exe/rbdock.cxx#4 $)

>  <Rbt.Library>
libRbt.so (2013.1, Build901 2013/11/27)

>  <Rbt.Parameter_File>
/home/adria/Escritorio/rDock_2013.1_src/data/scripts/dock.prm

>  <Rbt.Receptor>
sah_rdock.prm

>  <SCORE>
-104.069

>  <SCORE.INTER>
-15.5991

>  <SCORE.INTER.CONST>
1

>  <SCORE.INTER.POLAR>
-0.669589

>  <SCORE.INTER.REPUL>
0.000698096

>  <SCORE.INTER.ROT>
7

>  <SCORE.INTER.VDW>
-25.726

>  <SCORE.INTER.norm>
-0.503198

>  <SCORE.INTRA>
-92.6791

>  <SCORE.INTRA.DIHEDRAL>
-3.48125

>  <SCORE.INTRA.DIHEDRAL.0>
6.63797

>  <SCORE.INTRA.POLAR>
0

>  <SCORE.INTRA.POLAR.0>
0

>  <SCORE.INTRA.REPUL>
0

>  <SCORE.INTRA.REPUL.0>
0

>  <SCORE.INTRA.VDW>
-90.9385

>  <SCORE.INTRA.VDW.0>
88.3483

>  <SCORE.INTRA.norm>
-2.98965

>  <SCORE.RESTR>
0

>  <SCORE.RESTR.CAVITY>
0

>  <SCORE.RESTR.norm>
0

>  <SCORE.SYSTEM>
4.20949

>  <SCORE.SYSTEM.CONST>
0

>  <SCORE.SYSTEM.DIHEDRAL>
8.49065

>  <SCORE.SYSTEM.POLAR>
-3.4582

>  <SCORE.SYSTEM.REPUL>
0.15051

>  <SCORE.SYSTEM.VDW>
10.9695

>  <SCORE.SYSTEM.norm>
0.13579

>  <SCORE.heavy>
31

>  <SCORE.norm>
-3.35706

$$$$
F2636-0386
  rDOCK(R)          3D
libRbt.so/2013.1/901 2013/11/27
 32 35  0  0  0  0  0  0  0  0999 V2000
  -26.6085   22.5859   -8.9199 C   0  0  0  0  0  0
  -24.7382   22.6988   -8.7029 C   0  0  0  0  0  0
  -23.4376   23.2115   -9.2246 C   0  0  0  0  0  0
  -23.6453   24.6759   -9.2858 C   0  0  0  0  0  0
  -22.3989   25.5684   -9.4919 C   0  0  0  0  0  0
  -21.5198   25.6746  -10.6971 N   0  0  0  0  0  0
  -20.4081   24.7086  -10.8455 C   0  0  0  0  0  0
  -20.3090   23.6800  -12.1142 C   0  0  0  0  0  0
  -21.6357   23.2512  -12.7197 N   0  0  0  0  0  0
  -22.4712   24.6930  -12.8639 C   0  0  0  0  0  0
  -22.1047   25.9436  -12.0094 C   0  0  0  0  0  0
  -22.1246   21.6785  -12.6625 C   0  0  0  0  0  0
  -23.2628   21.3107  -12.0472 N   0  0  0  0  0  0
  -23.3032   19.9336  -12.0328 C   0  0  0  0  0  0
  -22.2944   19.3228  -12.7375 C   0  0  0  0  0  0
  -21.8927   20.2739  -13.6380 N   0  0  0  0  0  0
  -21.0137   19.6770  -15.0058 C   0  0  0  0  0  0
  -19.4948   19.6044  -15.2855 C   0  0  0  0  0  0
  -18.8661   18.3743  -15.4019 C   0  0  0  0  0  0
  -17.5722   18.2845  -15.9431 C   0  0  0  0  0  0
  -16.9116   16.7258  -16.2333 Cl  0  0  0  0  0  0
  -16.8552   19.4162  -16.3370 C   0  0  0  0  0  0
  -17.3594   20.6666  -16.0095 C   0  0  0  0  0  0
  -18.6486   20.7597  -15.4278 C   0  0  0  0  0  0
  -21.9101   18.0178  -12.4929 C   0  0  0  0  0  0
  -20.7386   17.5341  -12.8555 O   0  0  0  0  0  0
  -22.7543   17.3023  -11.7825 N   0  3  0  0  0  0
  -22.5389   16.3333  -11.5798 H   0  0  0  0  0  0
  -23.9007   17.8075  -11.1566 C   0  0  0  0  0  0
  -24.6134   17.0214  -10.5157 O   0  0  0  0  0  0
  -24.1509   19.1602  -11.2898 N   0  3  0  0  0  0
  -25.2439   19.8240  -10.6024 C   0  0  0  0  0  0
  1  2  1  0  0  0
  2  3  1  0  0  0
  3  4  1  0  0  0
  4  5  1  0  0  0
  5  6  1  0  0  0
  6  7  1  0  0  0
  6 11  1  0  0  0
  7  8  1  0  0  0
  8  9  1  0  0  0
  9 10  1  0  0  0
 10 11  1  0  0  0
 12  9  1  0  0  0
 12 13  1  0  0  0
 12 16  1  0  0  0
 14 13  1  0  0  0
 14 15  1  0  0  0
 14 31  1  0  0  0
 15 16  1  0  0  0
 15 25  1  0  0  0
 16 17  1  0  0  0
 17 18  1  0  0  0
 18 19  2  0  0  0
 18 24  1  0  0  0
 19 20  1  0  0  0
 20 21  1  0  0  0
 20 22  2  0  0  0
 22 23  1  0  0  0
 23 24  2  0  0  0
 25 26  2  0  0  0
 25 27  1  0  0  0
 27 28  1  0  0  0
 27 29  1  0  0  0
 29 30  2  0  0  0
 29 31  1  0  0  0
 31 32  1  0  0  0
M  END
>  <CHROM.0>
-61.01773788,66.99042081,-132.12552879,65.87850010,-30.03574968,-55.21457660
-36.10875790,-159.85070309

>  <CHROM.1>
57.38813978,166.92127976,67.36708551,-85.49786972,119.79794844,56.76638347
114.66955478,-21.52989388,20.76434602,-12.56910388,2.40336304,0.64998097
0.22216708

>  <Name>
F2636-0386

>  <RI>
3.30489e+07

>  <Rbt.Current_Directory>
/home/adria/Escritorio/rDock_CMTR_LC/2pxcA_model/inputs_sah

>  <Rbt.Executable>
rbdock ($Id: //depot/dev/client3/rdock/2013.1/src/exe/rbdock.cxx#4 $)

>  <Rbt.Library>
libRbt.so (2013.1, Build901 2013/11/27)

>  <Rbt.Parameter_File>
/home/adria/Escritorio/rDock_2013.1_src/data/scripts/dock.prm

>  <Rbt.Receptor>
sah_rdock.prm

>  <SCORE>
-112.992

>  <SCORE.INTER>
-13.2421

>  <SCORE.INTER.CONST>
1

>  <SCORE.INTER.POLAR>
-1.58928

>  <SCORE.INTER.REPUL>
0.575408

>  <SCORE.INTER.ROT>
7

>  <SCORE.INTER.VDW>
-23.1156

>  <SCORE.INTER.norm>
-0.427163

>  <SCORE.INTRA>
-93.0612

>  <SCORE.INTRA.DIHEDRAL>
-2.35438

>  <SCORE.INTRA.DIHEDRAL.0>
6.63797

>  <SCORE.INTRA.POLAR>
0

>  <SCORE.INTRA.POLAR.0>
0

>  <SCORE.INTRA.REPUL>
0

>  <SCORE.INTRA.REPUL.0>
0

>  <SCORE.INTRA.VDW>
-91.884

>  <SCORE.INTRA.VDW.0>
88.3483

>  <SCORE.INTRA.norm>
-3.00198

>  <SCORE.RESTR>
0.00513625

>  <SCORE.RESTR.CAVITY>
0.00513625

>  <SCORE.RESTR.norm>
0.000165686

>  <SCORE.SYSTEM>
-6.69373

>  <SCORE.SYSTEM.CONST>
0

>  <SCORE.SYSTEM.DIHEDRAL>
9.11545

>  <SCORE.SYSTEM.POLAR>
-4.20972

>  <SCORE.SYSTEM.VDW>
3.06158

>  <SCORE.SYSTEM.norm>
-0.215927

>  <SCORE.heavy>
31

>  <SCORE.norm>
-3.6449

$$$$
F2636-0386
  rDOCK(R)          3D
libRbt.so/2013.1/901 2013/11/27
 32 35  0  0  0  0  0  0  0  0999 V2000
  -26.1401   21.0988  -10.9797 C   0  0  0  0  0  0
  -26.3923   22.0721   -9.3838 C   0  0  0  0  0  0
  -26.3470   23.3942   -8.6934 C   0  0  0  0  0  0
  -24.9599   23.8560   -8.9263 C   0  0  0  0  0  0
  -24.5874   24.3128  -10.3564 C   0  0  0  0  0  0
  -23.2895   24.8722  -10.8457 N   0  0  0  0  0  0
  -22.0360   24.1884  -10.4556 C   0  0  0  0  0  0
  -21.0131   23.5446  -11.5587 C   0  0  0  0  0  0
  -21.6566   23.0512  -12.8445 N   0  0  0  0  0  0
  -22.6731   24.3102  -13.2681 C   0  0  0  0  0  0
  -23.1705   25.3521  -12.2212 C   0  0  0  0  0  0
  -21.6319   21.4531  -13.2456 C   0  0  0  0  0  0
  -22.7530   20.7858  -13.5731 N   0  0  0  0  0  0
  -22.4254   19.4529  -13.6929 C   0  0  0  0  0  0
  -21.0825   19.1811  -13.5916 C   0  0  0  0  0  0
  -20.4763   20.3644  -13.9220 N   0  0  0  0  0  0
  -18.8158   20.2402  -14.3986 C   0  0  0  0  0  0
  -18.1219   19.3312  -15.4391 C   0  0  0  0  0  0
  -18.5963   18.0492  -15.6704 C   0  0  0  0  0  0
  -18.1773   17.3284  -16.8018 C   0  0  0  0  0  0
  -18.9303   15.8219  -17.1389 Cl  0  0  0  0  0  0
  -17.2435   17.8439  -17.7030 C   0  0  0  0  0  0
  -16.5763   19.0135  -17.3685 C   0  0  0  0  0  0
  -16.9699   19.7240  -16.2068 C   0  0  0  0  0  0
  -20.6078   17.9279  -13.2526 C   0  0  0  0  0  0
  -19.3945   17.7233  -12.7795 O   0  0  0  0  0  0
  -21.4811   16.9486  -13.3401 N   0  3  0  0  0  0
  -21.1930   16.0027  -13.1193 H   0  0  0  0  0  0
  -22.8470   17.1165  -13.5994 C   0  0  0  0  0  0
  -23.5616   16.1053  -13.6564 O   0  0  0  0  0  0
  -23.3062   18.4098  -13.7629 N   0  3  0  0  0  0
  -24.7139   18.7240  -13.9290 C   0  0  0  0  0  0
  1  2  1  0  0  0
  2  3  1  0  0  0
  3  4  1  0  0  0
  4  5  1  0  0  0
  5  6  1  0  0  0
  6  7  1  0  0  0
  6 11  1  0  0  0
  7  8  1  0  0  0
  8  9  1  0  0  0
  9 10  1  0  0  0
 10 11  1  0  0  0
 12  9  1  0  0  0
 12 13  1  0  0  0
 12 16  1  0  0  0
 14 13  1  0  0  0
 14 15  1  0  0  0
 14 31  1  0  0  0
 15 16  1  0  0  0
 15 25  1  0  0  0
 16 17  1  0  0  0
 17 18  1  0  0  0
 18 19  2  0  0  0
 18 24  1  0  0  0
 19 20  1  0  0  0
 20 21  1  0  0  0
 20 22  2  0  0  0
 22 23  1  0  0  0
 23 24  2  0  0  0
 25 26  2  0  0  0
 25 27  1  0  0  0
 27 28  1  0  0  0
 27 29  1  0  0  0
 29 30  2  0  0  0
 29 31  1  0  0  0
 31 32  1  0  0  0
M  END
>  <CHROM.0>
-176.51491768,-170.62908190,-128.23318695,144.64550335,168.00866557,60.11477309
-36.08768324,-167.37243587

>  <CHROM.1>
-55.70055027,72.00505114,177.19222002,46.73044745,127.98460375,-154.48593669
-33.01104587,-21.56665944,20.17575095,-13.42943806,2.29539014,0.53077699
0.33161749

>  <Name>
F2636-0386

>  <RI>
3.30489e+07

>  <Rbt.Current_Directory>
/home/adria/Escritorio/rDock_CMTR_LC/2pxcA_model/inputs_sah

>  <Rbt.Executable>
rbdock ($Id: //depot/dev/client3/rdock/2013.1/src/exe/rbdock.cxx#4 $)

>  <Rbt.Library>
libRbt.so (2013.1, Build901 2013/11/27)

>  <Rbt.Parameter_File>
/home/adria/Escritorio/rDock_2013.1_src/data/scripts/dock.prm

>  <Rbt.Receptor>
sah_rdock.prm

>  <SCORE>
-103.546

>  <SCORE.INTER>
-14.3262

>  <SCORE.INTER.CONST>
1

>  <SCORE.INTER.POLAR>
-1.67003

>  <SCORE.INTER.REPUL>
0.0199362

>  <SCORE.INTER.ROT>
7

>  <SCORE.INTER.VDW>
-21.1478

>  <SCORE.INTER.norm>
-0.462135

>  <SCORE.INTRA>
-91.9392

>  <SCORE.INTRA.DIHEDRAL>
-3.19078

>  <SCORE.INTRA.DIHEDRAL.0>
6.63797

>  <SCORE.INTRA.POLAR>
0

>  <SCORE.INTRA.POLAR.0>
0

>  <SCORE.INTRA.REPUL>
0

>  <SCORE.INTRA.REPUL.0>
0

>  <SCORE.INTRA.VDW>
-90.3438

>  <SCORE.INTRA.VDW.0>
88.3483

>  <SCORE.INTRA.norm>
-2.96578

>  <SCORE.RESTR>
0

>  <SCORE.RESTR.CAVITY>
0

>  <SCORE.RESTR.norm>
0

>  <SCORE.SYSTEM>
2.71956

>  <SCORE.SYSTEM.CONST>
0

>  <SCORE.SYSTEM.DIHEDRAL>
10.6678

>  <SCORE.SYSTEM.POLAR>
-4.11464

>  <SCORE.SYSTEM.VDW>
11.3754

>  <SCORE.SYSTEM.norm>
0.0877277

>  <SCORE.heavy>
31

>  <SCORE.norm>
-3.34019

$$$$
F2636-0386
  rDOCK(R)          3D
libRbt.so/2013.1/901 2013/11/27
 32 35  0  0  0  0  0  0  0  0999 V2000
  -20.1316   24.4002  -10.9469 C   0  0  0  0  0  0
  -20.7796   23.1696  -12.2211 C   0  0  0  0  0  0
  -21.5173   21.8996  -12.4850 C   0  0  0  0  0  0
  -22.8570   22.1545  -11.9091 C   0  0  0  0  0  0
  -23.9315   21.0549  -12.0799 C   0  0  0  0  0  0
  -23.9293   19.6603  -11.5396 N   0  0  0  0  0  0
  -24.0692   18.5357  -12.4919 C   0  0  0  0  0  0
  -22.9141   17.3898  -12.6650 C   0  0  0  0  0  0
  -21.4895   17.8438  -12.3909 N   0  0  0  0  0  0
  -21.6304   18.6918  -10.9561 C   0  0  0  0  0  0
  -22.9915   19.2852  -10.4830 C   0  0  0  0  0  0
  -20.3591   17.8583  -13.5899 C   0  0  0  0  0  0
  -19.7045   18.9816  -13.9350 N   0  0  0  0  0  0
  -18.9605   18.7021  -15.0604 C   0  0  0  0  0  0
  -18.9670   17.3814  -15.4387 C   0  0  0  0  0  0
  -19.2812   16.7060  -14.2889 N   0  0  0  0  0  0
  -18.8685   15.0240  -14.2795 C   0  0  0  0  0  0
  -17.9540   14.1962  -15.2117 C   0  0  0  0  0  0
  -18.4785   13.1449  -15.9478 C   0  0  0  0  0  0
  -17.7458   12.5820  -17.0068 C   0  0  0  0  0  0
  -18.5112   11.4084  -18.0001 Cl  0  0  0  0  0  0
  -16.4586   13.0173  -17.3289 C   0  0  0  0  0  0
  -15.8199   13.8934  -16.4632 C   0  0  0  0  0  0
  -16.5438   14.4342  -15.3711 C   0  0  0  0  0  0
  -18.6674   16.9826  -16.7279 C   0  0  0  0  0  0
  -19.0259   15.8132  -17.2195 O   0  0  0  0  0  0
  -18.0787   17.8878  -17.4785 N   0  3  0  0  0  0
  -17.8194   17.6545  -18.4297 H   0  0  0  0  0  0
  -17.8828   19.2252  -17.1123 C   0  0  0  0  0  0
  -17.3111   19.9756  -17.9164 O   0  0  0  0  0  0
  -18.3555   19.6186  -15.8745 N   0  3  0  0  0  0
  -18.3108   20.9979  -15.4233 C   0  0  0  0  0  0
  1  2  1  0  0  0
  2  3  1  0  0  0
  3  4  1  0  0  0
  4  5  1  0  0  0
  5  6  1  0  0  0
  6  7  1  0  0  0
  6 11  1  0  0  0
  7  8  1  0  0  0
  8  9  1  0  0  0
  9 10  1  0  0  0
 10 11  1  0  0  0
 12  9  1  0  0  0
 12 13  1  0  0  0
 12 16  1  0  0  0
 14 13  1  0  0  0
 14 15  1  0  0  0
 14 31  1  0  0  0
 15 16  1  0  0  0
 15 25  1  0  0  0
 16 17  1  0  0  0
 17 18  1  0  0  0
 18 19  2  0  0  0
 18 24  1  0  0  0
 19 20  1  0  0  0
 20 21  1  0  0  0
 20 22  2  0  0  0
 22 23  1  0  0  0
 23 24  2  0  0  0
 25 26  2  0  0  0
 25 27  1  0  0  0
 27 28  1  0  0  0
 27 29  1  0  0  0
 29 30  2  0  0  0
 29 31  1  0  0  0
 31 32  1  0  0  0
M  END
>  <CHROM.0>
-64.75662280,68.71047842,107.72112361,63.71535756,168.20839010,-177.93422691
-157.38736572,-160.61803680

>  <CHROM.1>
60.03027526,176.49013944,63.51892908,-123.56303048,122.16373296,168.83207758
-118.71858852,-19.70618363,17.59366064,-14.65456497,-2.17578648,-0.72947504
-2.98645180

>  <Name>
F2636-0386

>  <RI>
3.30489e+07

>  <Rbt.Current_Directory>
/home/adria/Escritorio/rDock_CMTR_LC/2pxcA_model/inputs_sah

>  <Rbt.Executable>
rbdock ($Id: //depot/dev/client3/rdock/2013.1/src/exe/rbdock.cxx#4 $)

>  <Rbt.Library>
libRbt.so (2013.1, Build901 2013/11/27)

>  <Rbt.Parameter_File>
/home/adria/Escritorio/rDock_2013.1_src/data/scripts/dock.prm

>  <Rbt.Receptor>
sah_rdock.prm

>  <SCORE>
-104.354

>  <SCORE.INTER>
-9.85434

>  <SCORE.INTER.CONST>
1

>  <SCORE.INTER.POLAR>
-1.13739

>  <SCORE.INTER.REPUL>
0.0408764

>  <SCORE.INTER.ROT>
7

>  <SCORE.INTER.VDW>
-18.5916

>  <SCORE.INTER.norm>
-0.317882

>  <SCORE.INTRA>
-92.3151

>  <SCORE.INTRA.DIHEDRAL>
-1.15681

>  <SCORE.INTRA.DIHEDRAL.0>
6.63797

>  <SCORE.INTRA.POLAR>
0

>  <SCORE.INTRA.POLAR.0>
0

>  <SCORE.INTRA.REPUL>
0

>  <SCORE.INTRA.REPUL.0>
0

>  <SCORE.INTRA.VDW>
-91.7367

>  <SCORE.INTRA.VDW.0>
88.3483

>  <SCORE.INTRA.norm>
-2.97791

>  <SCORE.RESTR>
0.00169192

>  <SCORE.RESTR.CAVITY>
0.00169192

>  <SCORE.RESTR.norm>
5.45779e-05

>  <SCORE.SYSTEM>
-2.18648

>  <SCORE.SYSTEM.CONST>
0

>  <SCORE.SYSTEM.DIHEDRAL>
6.11271

>  <SCORE.SYSTEM.POLAR>
-4.20627

>  <SCORE.SYSTEM.VDW>
9.0585

>  <SCORE.SYSTEM.norm>
-0.0705316

>  <SCORE.heavy>
31

>  <SCORE.norm>
-3.36627

$$$$
F2636-0386
  rDOCK(R)          3D
libRbt.so/2013.1/901 2013/11/27
 32 35  0  0  0  0  0  0  0  0999 V2000
  -14.7777   18.3429  -17.6665 C   0  0  0  0  0  0
  -16.2563   19.3295  -17.0355 C   0  0  0  0  0  0
  -17.6528   19.3100  -16.5099 C   0  0  0  0  0  0
  -17.5367   18.5337  -15.2549 C   0  0  0  0  0  0
  -18.7995   18.4081  -14.3706 C   0  0  0  0  0  0
  -20.0900   17.7203  -14.6841 N   0  0  0  0  0  0
  -20.8254   17.0646  -13.5793 C   0  0  0  0  0  0
  -22.3382   17.5158  -13.1490 C   0  0  0  0  0  0
  -22.6841   18.9761  -13.3913 N   0  0  0  0  0  0
  -22.1328   19.2439  -14.9476 C   0  0  0  0  0  0
  -21.0459   18.3383  -15.6012 C   0  0  0  0  0  0
  -23.0136   19.9889  -12.1339 C   0  0  0  0  0  0
  -23.3666   19.5245  -10.9218 N   0  0  0  0  0  0
  -23.7286   20.6066  -10.1495 C   0  0  0  0  0  0
  -23.5129   21.8291  -10.7381 C   0  0  0  0  0  0
  -22.5413   21.5833  -11.6723 N   0  0  0  0  0  0
  -21.6728   22.9764  -12.2243 C   0  0  0  0  0  0
  -20.9835   24.1198  -11.4445 C   0  0  0  0  0  0
  -21.7460   25.0728  -10.7870 C   0  0  0  0  0  0
  -21.1553   25.9293   -9.8422 C   0  0  0  0  0  0
  -22.1734   26.9656   -8.9259 Cl  0  0  0  0  0  0
  -19.7876   25.8914   -9.5631 C   0  0  0  0  0  0
  -18.9672   25.1211  -10.3747 C   0  0  0  0  0  0
  -19.5567   24.2843  -11.3553 C   0  0  0  0  0  0
  -24.1856   22.9685  -10.3383 C   0  0  0  0  0  0
  -24.2979   24.0400  -11.0978 O   0  0  0  0  0  0
  -24.7981   22.8867   -9.1775 N   0  3  0  0  0  0
  -25.2979   23.6922   -8.8198 H   0  0  0  0  0  0
  -24.9307   21.7133   -8.4246 C   0  0  0  0  0  0
  -25.5334   21.7755   -7.3432 O   0  0  0  0  0  0
  -24.3854   20.5578   -8.9516 N   0  3  0  0  0  0
  -24.5481   19.2595   -8.3225 C   0  0  0  0  0  0
  1  2  1  0  0  0
  2  3  1  0  0  0
  3  4  1  0  0  0
  4  5  1  0  0  0
  5  6  1  0  0  0
  6  7  1  0  0  0
  6 11  1  0  0  0
  7  8  1  0  0  0
  8  9  1  0  0  0
  9 10  1  0  0  0
 10 11  1  0  0  0
 12  9  1  0  0  0
 12 13  1  0  0  0
 12 16  1  0  0  0
 14 13  1  0  0  0
 14 15  1  0  0  0
 14 31  1  0  0  0
 15 16  1  0  0  0
 15 25  1  0  0  0
 16 17  1  0  0  0
 17 18  1  0  0  0
 18 19  2  0  0  0
 18 24  1  0  0  0
 19 20  1  0  0  0
 20 21  1  0  0  0
 20 22  2  0  0  0
 22 23  1  0  0  0
 23 24  2  0  0  0
 25 26  2  0  0  0
 25 27  1  0  0  0
 27 28  1  0  0  0
 27 29  1  0  0  0
 29 30  2  0  0  0
 29 31  1  0  0  0
 31 32  1  0  0  0
M  END
>  <CHROM.0>
-60.89202188,66.62904258,104.49844903,-60.84344285,-31.47710618,-177.86833615
-36.78594253,-164.37916547

>  <CHROM.1>
61.54942779,175.16023888,65.07986974,146.19363605,-19.40066157,-155.96014230
-71.70582600,-21.61797429,21.49263176,-11.81845049,-0.93375747,0.60616020
0.45687538

>  <Name>
F2636-0386

>  <RI>
3.30489e+07

>  <Rbt.Current_Directory>
/home/adria/Escritorio/rDock_CMTR_LC/2pxcA_model/inputs_sah

>  <Rbt.Executable>
rbdock ($Id: //depot/dev/client3/rdock/2013.1/src/exe/rbdock.cxx#4 $)

>  <Rbt.Library>
libRbt.so (2013.1, Build901 2013/11/27)

>  <Rbt.Parameter_File>
/home/adria/Escritorio/rDock_2013.1_src/data/scripts/dock.prm

>  <Rbt.Receptor>
sah_rdock.prm

>  <SCORE>
-113.443

>  <SCORE.INTER>
-14.5939

>  <SCORE.INTER.CONST>
1

>  <SCORE.INTER.POLAR>
-0.474466

>  <SCORE.INTER.REPUL>
0

>  <SCORE.INTER.ROT>
7

>  <SCORE.INTER.VDW>
-25.3807

>  <SCORE.INTER.norm>
-0.470771

>  <SCORE.INTRA>
-92.1874

>  <SCORE.INTRA.DIHEDRAL>
-3.17052

>  <SCORE.INTRA.DIHEDRAL.0>
6.63797

>  <SCORE.INTRA.POLAR>
0

>  <SCORE.INTRA.POLAR.0>
0

>  <SCORE.INTRA.REPUL>
0

>  <SCORE.INTRA.REPUL.0>
0

>  <SCORE.INTRA.VDW>
-90.6021

>  <SCORE.INTRA.VDW.0>
88.3483

>  <SCORE.INTRA.norm>
-2.97379

>  <SCORE.RESTR>
0.00101581

>  <SCORE.RESTR.CAVITY>
0.00101581

>  <SCORE.RESTR.norm>
3.27681e-05

>  <SCORE.SYSTEM>
-6.66288

>  <SCORE.SYSTEM.CONST>
0

>  <SCORE.SYSTEM.DIHEDRAL>
8.11605

>  <SCORE.SYSTEM.POLAR>
-4.15073

>  <SCORE.SYSTEM.VDW>
3.39157

>  <SCORE.SYSTEM.norm>
-0.214932

>  <SCORE.heavy>
31

>  <SCORE.norm>
-3.65946

$$$$
F2636-0386
  rDOCK(R)          3D
libRbt.so/2013.1/901 2013/11/27
 32 35  0  0  0  0  0  0  0  0999 V2000
  -23.3503   17.0965  -14.4537 C   0  0  0  0  0  0
  -24.5854   18.3664  -15.1016 C   0  0  0  0  0  0
  -25.9742   18.9104  -15.0570 C   0  0  0  0  0  0
  -26.1206   19.3640  -13.6555 C   0  0  0  0  0  0
  -26.3712   18.2853  -12.5757 C   0  0  0  0  0  0
  -26.4215   18.4503  -11.0900 N   0  0  0  0  0  0
  -25.1615   18.3213  -10.3239 C   0  0  0  0  0  0
  -24.5569   19.5478   -9.4253 C   0  0  0  0  0  0
  -24.8853   20.9484   -9.9164 N   0  0  0  0  0  0
  -26.5248   20.8639  -10.2370 C   0  0  0  0  0  0
  -27.2418   19.5049  -10.4972 C   0  0  0  0  0  0
  -23.6969   21.9643  -10.4372 C   0  0  0  0  0  0
  -23.1220   22.8633   -9.6182 N   0  0  0  0  0  0
  -22.2971   23.6578  -10.3840 C   0  0  0  0  0  0
  -22.1712   23.2600  -11.6929 C   0  0  0  0  0  0
  -22.4889   21.9275  -11.6691 N   0  0  0  0  0  0
  -21.9364   21.0081  -13.0289 C   0  0  0  0  0  0
  -20.6177   20.2366  -13.2665 C   0  0  0  0  0  0
  -20.6409   18.8671  -13.4806 C   0  0  0  0  0  0
  -19.5085   18.2064  -13.9871 C   0  0  0  0  0  0
  -19.6469   16.5462  -14.4047 Cl  0  0  0  0  0  0
  -18.3139   18.8808  -14.2478 C   0  0  0  0  0  0
  -18.1873   20.1939  -13.8178 C   0  0  0  0  0  0
  -19.3170   20.8523  -13.2706 C   0  0  0  0  0  0
  -21.7694   24.1273  -12.6914 C   0  0  0  0  0  0
  -22.0004   23.9065  -13.9704 O   0  0  0  0  0  0
  -21.2197   25.2489  -12.2802 N   0  3  0  0  0  0
  -20.8903   25.9219  -12.9621 H   0  0  0  0  0  0
  -21.1580   25.6661  -10.9447 C   0  0  0  0  0  0
  -20.6091   26.7488  -10.6936 O   0  0  0  0  0  0
  -21.7287   24.8390   -9.9959 N   0  3  0  0  0  0
  -21.8255   25.2074   -8.5949 C   0  0  0  0  0  0
  1  2  1  0  0  0
  2  3  1  0  0  0
  3  4  1  0  0  0
  4  5  1  0  0  0
  5  6  1  0  0  0
  6  7  1  0  0  0
  6 11  1  0  0  0
  7  8  1  0  0  0
  8  9  1  0  0  0
  9 10  1  0  0  0
 10 11  1  0  0  0
 12  9  1  0  0  0
 12 13  1  0  0  0
 12 16  1  0  0  0
 14 13  1  0  0  0
 14 15  1  0  0  0
 14 31  1  0  0  0
 15 16  1  0  0  0
 15 25  1  0  0  0
 16 17  1  0  0  0
 17 18  1  0  0  0
 18 19  2  0  0  0
 18 24  1  0  0  0
 19 20  1  0  0  0
 20 21  1  0  0  0
 20 22  2  0  0  0
 22 23  1  0  0  0
 23 24  2  0  0  0
 25 26  2  0  0  0
 25 27  1  0  0  0
 27 28  1  0  0  0
 27 29  1  0  0  0
 29 30  2  0  0  0
 29 31  1  0  0  0
 31 32  1  0  0  0
M  END
>  <CHROM.0>
-65.73854181,65.23388535,-46.76301198,66.64264515,-30.29587465,-54.29185353
81.48179411,-164.04710260

>  <CHROM.1>
61.29876700,-77.25867435,173.45419594,-89.02545184,-94.35376304,-115.18531030
118.41634682,-22.59607310,20.90569674,-12.18577201,-1.70581879,0.36580848
0.46113490

>  <Name>
F2636-0386

>  <RI>
3.30489e+07

>  <Rbt.Current_Directory>
/home/adria/Escritorio/rDock_CMTR_LC/2pxcA_model/inputs_sah

>  <Rbt.Executable>
rbdock ($Id: //depot/dev/client3/rdock/2013.1/src/exe/rbdock.cxx#4 $)

>  <Rbt.Library>
libRbt.so (2013.1, Build901 2013/11/27)

>  <Rbt.Parameter_File>
/home/adria/Escritorio/rDock_2013.1_src/data/scripts/dock.prm

>  <Rbt.Receptor>
sah_rdock.prm

>  <SCORE>
-102.895

>  <SCORE.INTER>
-4.71835

>  <SCORE.INTER.CONST>
1

>  <SCORE.INTER.POLAR>
-1.23819

>  <SCORE.INTER.REPUL>
0.594919

>  <SCORE.INTER.ROT>
7

>  <SCORE.INTER.VDW>
-15.8831

>  <SCORE.INTER.norm>
-0.152205

>  <SCORE.INTRA>
-91.3327

>  <SCORE.INTRA.DIHEDRAL>
-0.790124

>  <SCORE.INTRA.DIHEDRAL.0>
6.63797

>  <SCORE.INTRA.POLAR>
0

>  <SCORE.INTRA.POLAR.0>
0

>  <SCORE.INTRA.REPUL>
0

>  <SCORE.INTRA.REPUL.0>
0

>  <SCORE.INTRA.VDW>
-90.9376

>  <SCORE.INTRA.VDW.0>
88.3483

>  <SCORE.INTRA.norm>
-2.94621

>  <SCORE.RESTR>
0.143796

>  <SCORE.RESTR.CAVITY>
0.143796

>  <SCORE.RESTR.norm>
0.0046386

>  <SCORE.SYSTEM>
-6.98739

>  <SCORE.SYSTEM.CONST>
0

>  <SCORE.SYSTEM.DIHEDRAL>
5.93694

>  <SCORE.SYSTEM.POLAR>
-3.62918

>  <SCORE.SYSTEM.VDW>
2.38335

>  <SCORE.SYSTEM.norm>
-0.2254

>  <SCORE.heavy>
31

>  <SCORE.norm>
-3.31918

$$$$
F2636-0386
  rDOCK(R)          3D
libRbt.so/2013.1/901 2013/11/27
 32 35  0  0  0  0  0  0  0  0999 V2000
  -15.5398   13.7784  -14.8012 C   0  0  0  0  0  0
  -15.2965   15.3105  -15.8743 C   0  0  0  0  0  0
  -15.5750   16.0002  -17.1680 C   0  0  0  0  0  0
  -14.9038   15.1393  -18.1678 C   0  0  0  0  0  0
  -15.8007   14.3178  -19.1235 C   0  0  0  0  0  0
  -16.9545   13.4294  -18.7826 N   0  0  0  0  0  0
  -17.1920   13.0981  -17.3596 C   0  0  0  0  0  0
  -18.5792   13.4988  -16.5899 C   0  0  0  0  0  0
  -19.2757   14.7514  -17.0967 N   0  0  0  0  0  0
  -19.2581   14.5503  -18.7571 C   0  0  0  0  0  0
  -18.2384   13.6037  -19.4591 C   0  0  0  0  0  0
  -19.4370   16.0795  -16.1346 C   0  0  0  0  0  0
  -18.5211   17.0646  -16.1248 N   0  0  0  0  0  0
  -18.8568   17.9364  -15.1121 C   0  0  0  0  0  0
  -20.0552   17.6667  -14.4969 C   0  0  0  0  0  0
  -20.7532   16.9433  -15.4277 N   0  0  0  0  0  0
  -22.4681   16.8883  -15.1917 C   0  0  0  0  0  0
  -23.4018   17.7525  -14.3131 C   0  0  0  0  0  0
  -23.9641   17.2213  -13.1625 C   0  0  0  0  0  0
  -24.5616   18.0626  -12.2083 C   0  0  0  0  0  0
  -25.0793   17.3770  -10.7211 Cl  0  0  0  0  0  0
  -24.6566   19.4431  -12.3958 C   0  0  0  0  0  0
  -24.3231   19.9673  -13.6364 C   0  0  0  0  0  0
  -23.7556   19.1142  -14.6157 C   0  0  0  0  0  0
  -20.3513   18.1252  -13.2269 C   0  0  0  0  0  0
  -21.2880   17.5890  -12.4700 O   0  0  0  0  0  0
  -19.5691   19.0797  -12.7725 N   0  3  0  0  0  0
  -19.7412   19.4700  -11.8536 H   0  0  0  0  0  0
  -18.4090   19.5345  -13.4118 C   0  0  0  0  0  0
  -17.7613   20.4441  -12.8737 O   0  0  0  0  0  0
  -18.0603   18.9230  -14.6012 N   0  3  0  0  0  0
  -16.8273   19.2281  -15.3045 C   0  0  0  0  0  0
  1  2  1  0  0  0
  2  3  1  0  0  0
  3  4  1  0  0  0
  4  5  1  0  0  0
  5  6  1  0  0  0
  6  7  1  0  0  0
  6 11  1  0  0  0
  7  8  1  0  0  0
  8  9  1  0  0  0
  9 10  1  0  0  0
 10 11  1  0  0  0
 12  9  1  0  0  0
 12 13  1  0  0  0
 12 16  1  0  0  0
 14 13  1  0  0  0
 14 15  1  0  0  0
 14 31  1  0  0  0
 15 16  1  0  0  0
 15 25  1  0  0  0
 16 17  1  0  0  0
 17 18  1  0  0  0
 18 19  2  0  0  0
 18 24  1  0  0  0
 19 20  1  0  0  0
 20 21  1  0  0  0
 20 22  2  0  0  0
 22 23  1  0  0  0
 23 24  2  0  0  0
 25 26  2  0  0  0
 25 27  1  0  0  0
 27 28  1  0  0  0
 27 29  1  0  0  0
 29 30  2  0  0  0
 29 31  1  0  0  0
 31 32  1  0  0  0
M  END
>  <CHROM.0>
-60.42170542,-171.40684484,-128.76359489,-67.86948615,168.28798510,-58.09522921
-36.53799800,-158.37367860

>  <CHROM.1>
-64.32678028,109.71743704,-49.95973396,-10.09723950,91.38590918,170.20615248
-107.55116192,-19.80379341,16.83650013,-15.01062422,-0.70209306,0.23286247
0.68139917

>  <Name>
F2636-0386

>  <RI>
3.30489e+07

>  <Rbt.Current_Directory>
/home/adria/Escritorio/rDock_CMTR_LC/2pxcA_model/inputs_sah

>  <Rbt.Executable>
rbdock ($Id: //depot/dev/client3/rdock/2013.1/src/exe/rbdock.cxx#4 $)

>  <Rbt.Library>
libRbt.so (2013.1, Build901 2013/11/27)

>  <Rbt.Parameter_File>
/home/adria/Escritorio/rDock_2013.1_src/data/scripts/dock.prm

>  <Rbt.Receptor>
sah_rdock.prm

>  <SCORE>
-89.745

>  <SCORE.INTER>
-0.127681

>  <SCORE.INTER.CONST>
1

>  <SCORE.INTER.POLAR>
-0.354322

>  <SCORE.INTER.REPUL>
0

>  <SCORE.INTER.ROT>
7

>  <SCORE.INTER.VDW>
-11.323

>  <SCORE.INTER.norm>
-0.00411874

>  <SCORE.INTRA>
-88.9709

>  <SCORE.INTRA.DIHEDRAL>
4.6422

>  <SCORE.INTRA.DIHEDRAL.0>
6.63797

>  <SCORE.INTRA.POLAR>
0

>  <SCORE.INTRA.POLAR.0>
0

>  <SCORE.INTRA.REPUL>
0

>  <SCORE.INTRA.REPUL.0>
0

>  <SCORE.INTRA.VDW>
-91.292

>  <SCORE.INTRA.VDW.0>
88.3483

>  <SCORE.INTRA.norm>
-2.87003

>  <SCORE.RESTR>
0.058424

>  <SCORE.RESTR.CAVITY>
0.058424

>  <SCORE.RESTR.norm>
0.00188465

>  <SCORE.SYSTEM>
-0.704827

>  <SCORE.SYSTEM.CONST>
0

>  <SCORE.SYSTEM.DIHEDRAL>
6.58736

>  <SCORE.SYSTEM.POLAR>
-4.15709

>  <SCORE.SYSTEM.VDW>
10.1356

>  <SCORE.SYSTEM.norm>
-0.0227364

>  <SCORE.heavy>
31

>  <SCORE.norm>
-2.895

$$$$
