F6436-1869
  rDOCK(R)          3D
libRbt.so/2013.1/901 2013/11/27
 25 27  0  0  0  0  0  0  0  0999 V2000
  -21.1551   18.2631  -11.5305 C   0  0  0  0  0  0
  -22.4277   18.6473  -12.1266 N   0  0  0  0  0  0
  -23.6921   17.6416  -11.3236 C   0  0  0  0  0  0
  -25.4840   18.4058  -11.7282 C   0  0  0  0  0  0
  -24.9833   19.9597  -12.9174 C   0  0  0  0  0  0
  -23.1585   20.0813  -12.8815 C   0  0  0  0  0  0
  -22.5659   21.3780  -12.2929 C   0  0  0  0  0  0
  -21.5469   22.1052  -13.1578 N   0  0  0  0  0  0
  -21.8751   23.5523  -13.1134 C   0  0  0  0  0  0
  -21.1145   24.2282  -11.9898 C   0  0  0  0  0  0
  -20.0647   23.7384  -11.2347 C   0  0  0  0  0  0
  -19.6159   24.6639  -10.2452 C   0  0  0  0  0  0
  -20.3254   25.8425  -10.2807 C   0  0  0  0  0  0
  -21.5103   25.8352  -11.5130 S   0  0  0  0  0  0
  -20.2930   21.7846  -13.7784 C   0  0  0  0  0  0
  -19.7543   22.7341  -14.4007 O   0  0  0  0  0  0
  -19.3175   20.4355  -13.8040 C   0  0  0  0  0  0
  -19.0214   19.6078  -15.0650 C   0  0  0  0  0  0
  -19.3429   18.0127  -15.6394 C   0  0  0  0  0  0
  -20.1450   17.0389  -14.3787 Cl  0  0  0  0  0  0
  -18.2237   17.0213  -16.6511 C   0  0  0  0  0  0
  -16.5652   17.5091  -17.0593 C   0  0  0  0  0  0
  -16.0591   19.0985  -16.4475 C   0  0  0  0  0  0
  -17.5740   20.2105  -15.5016 C   0  0  0  0  0  0
  -17.9320   21.5477  -15.6947 F   0  0  0  0  0  0
  1  2  1  0  0  0
  2  3  1  0  0  0
  2  6  1  0  0  0
  3  4  2  0  0  0
  4  5  1  0  0  0
  5  6  2  0  0  0
  6  7  1  0  0  0
  7  8  1  0  0  0
  8  9  1  0  0  0
  8 15  1  0  0  0
  9 10  1  0  0  0
 10 11  2  0  0  0
 10 14  1  0  0  0
 11 12  1  0  0  0
 12 13  2  0  0  0
 13 14  1  0  0  0
 15 16  2  0  0  0
 15 17  1  0  0  0
 17 18  1  0  0  0
 18 19  2  0  0  0
 18 24  1  0  0  0
 19 20  1  0  0  0
 19 21  1  0  0  0
 21 22  2  0  0  0
 22 23  1  0  0  0
 23 24  2  0  0  0
 24 25  1  0  0  0
M  END
>  <CHROM.0>
-62.13495434,64.10221534,-47.01585120,61.26561239,-29.55074155,-58.45678903
-36.64120962,-161.58965646

>  <CHROM.1>
103.34120706,135.77396970,91.51611153,12.18939781,115.04497640,-114.43515067
-20.55037994,20.82947333,-13.37026268,1.16786967,-0.55048684,-2.80854030

>  <Name>
F6436-1869

>  <RI>
4.00695e+07

>  <Rbt.Current_Directory>
/home/adria/Escritorio/rDock_CMTR_LC/2pxcA_model/inputs_sah

>  <Rbt.Executable>
rbdock ($Id: //depot/dev/client3/rdock/2013.1/src/exe/rbdock.cxx#4 $)

>  <Rbt.Library>
libRbt.so (2013.1, Build901 2013/11/27)

>  <Rbt.Parameter_File>
/home/adria/Escritorio/rDock_2013.1_src/data/scripts/dock.prm

>  <Rbt.Receptor>
sah_rdock.prm

>  <SCORE>
-287.346

>  <SCORE.INTER>
-12.1595

>  <SCORE.INTER.CONST>
1

>  <SCORE.INTER.POLAR>
0

>  <SCORE.INTER.REPUL>
0

>  <SCORE.INTER.ROT>
6

>  <SCORE.INTER.VDW>
-23.5595

>  <SCORE.INTER.norm>
-0.486379

>  <SCORE.INTRA>
-267.956

>  <SCORE.INTRA.DIHEDRAL>
-1.56638

>  <SCORE.INTRA.DIHEDRAL.0>
6.52878

>  <SCORE.INTRA.POLAR>
0

>  <SCORE.INTRA.POLAR.0>
0

>  <SCORE.INTRA.REPUL>
0

>  <SCORE.INTRA.REPUL.0>
0

>  <SCORE.INTRA.VDW>
-267.173

>  <SCORE.INTRA.VDW.0>
264.492

>  <SCORE.INTRA.norm>
-10.7182

>  <SCORE.RESTR>
0

>  <SCORE.RESTR.CAVITY>
0

>  <SCORE.RESTR.norm>
0

>  <SCORE.SYSTEM>
-7.23066

>  <SCORE.SYSTEM.CONST>
0

>  <SCORE.SYSTEM.DIHEDRAL>
5.86939

>  <SCORE.SYSTEM.POLAR>
-3.72114

>  <SCORE.SYSTEM.VDW>
2.48651

>  <SCORE.SYSTEM.norm>
-0.289227

>  <SCORE.heavy>
25

>  <SCORE.norm>
-11.4939

$$$$
F6436-1869
  rDOCK(R)          3D
libRbt.so/2013.1/901 2013/11/27
 25 27  0  0  0  0  0  0  0  0999 V2000
  -24.0743   22.9595   -8.4055 C   0  0  0  0  0  0
  -24.4093   22.7476   -9.8073 N   0  0  0  0  0  0
  -25.3924   24.1715  -10.3184 C   0  0  0  0  0  0
  -25.5049   24.2041  -12.3046 C   0  0  0  0  0  0
  -24.4617   22.5411  -12.7795 C   0  0  0  0  0  0
  -23.7211   21.9244  -11.2247 C   0  0  0  0  0  0
  -22.1804   21.9024  -11.1567 C   0  0  0  0  0  0
  -21.4451   22.3421  -12.4142 N   0  0  0  0  0  0
  -21.7114   23.7902  -12.6038 C   0  0  0  0  0  0
  -21.1635   24.5818  -11.4330 C   0  0  0  0  0  0
  -21.8154   25.4879  -10.6166 C   0  0  0  0  0  0
  -20.9598   26.0535   -9.6241 C   0  0  0  0  0  0
  -19.6801   25.5530   -9.6991 C   0  0  0  0  0  0
  -19.5217   24.3953  -10.9470 S   0  0  0  0  0  0
  -20.4381   21.7909  -13.2755 C   0  0  0  0  0  0
  -20.0847   22.5397  -14.2208 O   0  0  0  0  0  0
  -19.5456   20.3853  -13.2733 C   0  0  0  0  0  0
  -19.4879   19.3970  -14.4492 C   0  0  0  0  0  0
  -20.1446   17.8495  -14.8386 C   0  0  0  0  0  0
  -21.0469   17.1812  -13.4529 Cl  0  0  0  0  0  0
  -19.2983   16.5623  -15.7800 C   0  0  0  0  0  0
  -17.6028   16.6693  -16.2986 C   0  0  0  0  0  0
  -16.7643   18.1781  -15.8782 C   0  0  0  0  0  0
  -17.9785   19.6551  -15.0005 C   0  0  0  0  0  0
  -18.0811   21.0116  -15.3212 F   0  0  0  0  0  0
  1  2  1  0  0  0
  2  3  1  0  0  0
  2  6  1  0  0  0
  3  4  2  0  0  0
  4  5  1  0  0  0
  5  6  2  0  0  0
  6  7  1  0  0  0
  7  8  1  0  0  0
  8  9  1  0  0  0
  8 15  1  0  0  0
  9 10  1  0  0  0
 10 11  2  0  0  0
 10 14  1  0  0  0
 11 12  1  0  0  0
 12 13  2  0  0  0
 13 14  1  0  0  0
 15 16  2  0  0  0
 15 17  1  0  0  0
 17 18  1  0  0  0
 18 19  2  0  0  0
 18 24  1  0  0  0
 19 20  1  0  0  0
 19 21  1  0  0  0
 21 22  2  0  0  0
 22 23  1  0  0  0
 23 24  2  0  0  0
 24 25  1  0  0  0
M  END
>  <CHROM.0>
178.90389801,-74.85064861,-46.75666192,-146.03150671,-30.95039819,-58.15191465
83.26355671,-161.58439097

>  <CHROM.1>
-131.39738669,67.18299294,62.23817770,-126.17489134,125.03792065,-104.44277984
-20.96277116,21.63754879,-12.58285437,2.06291840,0.35622250,0.45363070

>  <Name>
F6436-1869

>  <RI>
4.00695e+07

>  <Rbt.Current_Directory>
/home/adria/Escritorio/rDock_CMTR_LC/2pxcA_model/inputs_sah

>  <Rbt.Executable>
rbdock ($Id: //depot/dev/client3/rdock/2013.1/src/exe/rbdock.cxx#4 $)

>  <Rbt.Library>
libRbt.so (2013.1, Build901 2013/11/27)

>  <Rbt.Parameter_File>
/home/adria/Escritorio/rDock_2013.1_src/data/scripts/dock.prm

>  <Rbt.Receptor>
sah_rdock.prm

>  <SCORE>
-284.872

>  <SCORE.INTER>
-13.5584

>  <SCORE.INTER.CONST>
1

>  <SCORE.INTER.POLAR>
0

>  <SCORE.INTER.REPUL>
0

>  <SCORE.INTER.ROT>
6

>  <SCORE.INTER.VDW>
-24.9584

>  <SCORE.INTER.norm>
-0.542335

>  <SCORE.INTRA>
-267.585

>  <SCORE.INTRA.DIHEDRAL>
-1.38886

>  <SCORE.INTRA.DIHEDRAL.0>
6.52878

>  <SCORE.INTRA.POLAR>
0

>  <SCORE.INTRA.POLAR.0>
0

>  <SCORE.INTRA.REPUL>
0

>  <SCORE.INTRA.REPUL.0>
0

>  <SCORE.INTRA.VDW>
-266.891

>  <SCORE.INTRA.VDW.0>
264.492

>  <SCORE.INTRA.norm>
-10.7034

>  <SCORE.RESTR>
0

>  <SCORE.RESTR.CAVITY>
0

>  <SCORE.RESTR.norm>
0

>  <SCORE.SYSTEM>
-3.72806

>  <SCORE.SYSTEM.CONST>
0

>  <SCORE.SYSTEM.DIHEDRAL>
10.8856

>  <SCORE.SYSTEM.POLAR>
-3.99737

>  <SCORE.SYSTEM.REPUL>
0.0416716

>  <SCORE.SYSTEM.VDW>
4.21181

>  <SCORE.SYSTEM.norm>
-0.149122

>  <SCORE.heavy>
25

>  <SCORE.norm>
-11.3949

$$$$
F6436-1869
  rDOCK(R)          3D
libRbt.so/2013.1/901 2013/11/27
 25 27  0  0  0  0  0  0  0  0999 V2000
  -23.7677   19.9213   -8.2411 C   0  0  0  0  0  0
  -23.1526   19.4368   -9.4695 N   0  0  0  0  0  0
  -24.3196   18.2705  -10.1994 C   0  0  0  0  0  0
  -23.7869   17.9108  -12.0824 C   0  0  0  0  0  0
  -22.1170   19.0368  -12.2348 C   0  0  0  0  0  0
  -22.0032   20.0177  -10.6950 C   0  0  0  0  0  0
  -22.0855   21.5504  -10.8469 C   0  0  0  0  0  0
  -21.6049   22.1219  -12.1726 N   0  0  0  0  0  0
  -22.0996   23.5187  -12.2624 C   0  0  0  0  0  0
  -21.4430   24.3768  -11.1992 C   0  0  0  0  0  0
  -22.0359   25.2027  -10.2619 C   0  0  0  0  0  0
  -21.0852   25.8723   -9.4343 C   0  0  0  0  0  0
  -19.7911   25.5284   -9.7518 C   0  0  0  0  0  0
  -19.7293   24.3911  -11.0267 S   0  0  0  0  0  0
  -20.6607   21.7448  -13.1856 C   0  0  0  0  0  0
  -20.5546   22.5585  -14.1373 O   0  0  0  0  0  0
  -19.5850   20.4866  -13.3647 C   0  0  0  0  0  0
  -19.3481   19.7341  -14.6839 C   0  0  0  0  0  0
  -19.6352   18.1522  -15.3108 C   0  0  0  0  0  0
  -20.2881   17.0811  -14.0430 Cl  0  0  0  0  0  0
  -18.5513   17.2681  -16.4521 C   0  0  0  0  0  0
  -16.9555   17.8605  -16.9598 C   0  0  0  0  0  0
  -16.4813   19.4446  -16.3099 C   0  0  0  0  0  0
  -17.9702   20.4312  -15.1982 C   0  0  0  0  0  0
  -18.4071   21.7552  -15.2971 F   0  0  0  0  0  0
  1  2  1  0  0  0
  2  3  1  0  0  0
  2  6  1  0  0  0
  3  4  2  0  0  0
  4  5  1  0  0  0
  5  6  2  0  0  0
  6  7  1  0  0  0
  7  8  1  0  0  0
  8  9  1  0  0  0
  8 15  1  0  0  0
  9 10  1  0  0  0
 10 11  2  0  0  0
 10 14  1  0  0  0
 11 12  1  0  0  0
 12 13  2  0  0  0
 13 14  1  0  0  0
 15 16  2  0  0  0
 15 17  1  0  0  0
 17 18  1  0  0  0
 18 19  2  0  0  0
 18 24  1  0  0  0
 19 20  1  0  0  0
 19 21  1  0  0  0
 21 22  2  0  0  0
 22 23  1  0  0  0
 23 24  2  0  0  0
 24 25  1  0  0  0
M  END
>  <CHROM.0>
-177.14554375,-75.06998413,-11.72743073,64.78694382,-29.83260935,-175.76467477
83.36422122,-52.54806781

>  <CHROM.1>
-156.71335384,164.86105307,65.87412736,-127.70628413,138.50267261,-112.13931560
-20.62556409,20.92055026,-12.60646324,2.09521676,0.77361332,0.39628477

>  <Name>
F6436-1869

>  <RI>
4.00695e+07

>  <Rbt.Current_Directory>
/home/adria/Escritorio/rDock_CMTR_LC/2pxcA_model/inputs_sah

>  <Rbt.Executable>
rbdock ($Id: //depot/dev/client3/rdock/2013.1/src/exe/rbdock.cxx#4 $)

>  <Rbt.Library>
libRbt.so (2013.1, Build901 2013/11/27)

>  <Rbt.Parameter_File>
/home/adria/Escritorio/rDock_2013.1_src/data/scripts/dock.prm

>  <Rbt.Receptor>
sah_rdock.prm

>  <SCORE>
-287.764

>  <SCORE.INTER>
-15.5664

>  <SCORE.INTER.CONST>
1

>  <SCORE.INTER.POLAR>
-0.817378

>  <SCORE.INTER.REPUL>
0.0551039

>  <SCORE.INTER.ROT>
6

>  <SCORE.INTER.VDW>
-24.4629

>  <SCORE.INTER.norm>
-0.622658

>  <SCORE.INTRA>
-267.725

>  <SCORE.INTRA.DIHEDRAL>
-1.72

>  <SCORE.INTRA.DIHEDRAL.0>
6.52878

>  <SCORE.INTRA.POLAR>
0

>  <SCORE.INTRA.POLAR.0>
0

>  <SCORE.INTRA.REPUL>
0

>  <SCORE.INTRA.REPUL.0>
0

>  <SCORE.INTRA.VDW>
-266.865

>  <SCORE.INTRA.VDW.0>
264.492

>  <SCORE.INTRA.norm>
-10.709

>  <SCORE.RESTR>
0

>  <SCORE.RESTR.CAVITY>
0

>  <SCORE.RESTR.norm>
0

>  <SCORE.SYSTEM>
-4.47254

>  <SCORE.SYSTEM.CONST>
0

>  <SCORE.SYSTEM.DIHEDRAL>
12.3734

>  <SCORE.SYSTEM.POLAR>
-4.22099

>  <SCORE.SYSTEM.REPUL>
0.0472635

>  <SCORE.SYSTEM.VDW>
3.45582

>  <SCORE.SYSTEM.norm>
-0.178901

>  <SCORE.heavy>
25

>  <SCORE.norm>
-11.5105

$$$$
F6436-1869
  rDOCK(R)          3D
libRbt.so/2013.1/901 2013/11/27
 25 27  0  0  0  0  0  0  0  0999 V2000
  -20.5108   23.9447  -11.6685 C   0  0  0  0  0  0
  -21.6671   23.0682  -11.7988 N   0  0  0  0  0  0
  -23.0937   24.1407  -12.0625 C   0  0  0  0  0  0
  -24.6227   23.0416  -12.7051 C   0  0  0  0  0  0
  -23.8025   21.1959  -12.7009 C   0  0  0  0  0  0
  -22.0215   21.4140  -12.3451 C   0  0  0  0  0  0
  -21.0393   20.9749  -13.4503 C   0  0  0  0  0  0
  -20.3486   19.6351  -13.2430 N   0  0  0  0  0  0
  -21.3310   18.7193  -12.6104 C   0  0  0  0  0  0
  -22.1493   18.0131  -13.6731 C   0  0  0  0  0  0
  -22.0894   18.1493  -15.0480 C   0  0  0  0  0  0
  -23.0381   17.3272  -15.7272 C   0  0  0  0  0  0
  -23.7877   16.5734  -14.8533 C   0  0  0  0  0  0
  -23.3335   16.8444  -13.2276 S   0  0  0  0  0  0
  -19.1352   19.0114  -13.6888 C   0  0  0  0  0  0
  -18.9669   17.8342  -13.2828 O   0  0  0  0  0  0
  -17.9000   19.4640  -14.7095 C   0  0  0  0  0  0
  -17.6533   18.8444  -16.0944 C   0  0  0  0  0  0
  -18.1500   17.4372  -16.9609 C   0  0  0  0  0  0
  -19.1301   16.3702  -15.9208 Cl  0  0  0  0  0  0
  -17.1211   16.5018  -18.1122 C   0  0  0  0  0  0
  -15.3960   16.8260  -18.3847 C   0  0  0  0  0  0
  -14.7189   18.1959  -17.4782 C   0  0  0  0  0  0
  -16.1211   19.3142  -16.3785 C   0  0  0  0  0  0
  -16.2943   20.7003  -16.3295 F   0  0  0  0  0  0
  1  2  1  0  0  0
  2  3  1  0  0  0
  2  6  1  0  0  0
  3  4  2  0  0  0
  4  5  1  0  0  0
  5  6  2  0  0  0
  6  7  1  0  0  0
  7  8  1  0  0  0
  8  9  1  0  0  0
  8 15  1  0  0  0
  9 10  1  0  0  0
 10 11  2  0  0  0
 10 14  1  0  0  0
 11 12  1  0  0  0
 12 13  2  0  0  0
 13 14  1  0  0  0
 15 16  2  0  0  0
 15 17  1  0  0  0
 17 18  1  0  0  0
 18 19  2  0  0  0
 18 24  1  0  0  0
 19 20  1  0  0  0
 19 21  1  0  0  0
 21 22  2  0  0  0
 22 23  1  0  0  0
 23 24  2  0  0  0
 24 25  1  0  0  0
M  END
>  <CHROM.0>
-179.02742179,66.79628247,109.70765623,63.79584046,-30.57494222,61.13139032
81.36353829,-163.14854329

>  <CHROM.1>
129.14517163,36.89025358,87.80139625,-1.29484420,-109.53595845,-15.63795234
-20.18937408,19.09182111,-14.49954947,-2.47665074,-0.40645700,-2.73983606

>  <Name>
F6436-1869

>  <RI>
4.00695e+07

>  <Rbt.Current_Directory>
/home/adria/Escritorio/rDock_CMTR_LC/2pxcA_model/inputs_sah

>  <Rbt.Executable>
rbdock ($Id: //depot/dev/client3/rdock/2013.1/src/exe/rbdock.cxx#4 $)

>  <Rbt.Library>
libRbt.so (2013.1, Build901 2013/11/27)

>  <Rbt.Parameter_File>
/home/adria/Escritorio/rDock_2013.1_src/data/scripts/dock.prm

>  <Rbt.Receptor>
sah_rdock.prm

>  <SCORE>
-285.157

>  <SCORE.INTER>
-11.3072

>  <SCORE.INTER.CONST>
1

>  <SCORE.INTER.POLAR>
-0.784025

>  <SCORE.INTER.REPUL>
0

>  <SCORE.INTER.ROT>
6

>  <SCORE.INTER.VDW>
-20.0415

>  <SCORE.INTER.norm>
-0.452289

>  <SCORE.INTRA>
-267.362

>  <SCORE.INTRA.DIHEDRAL>
-1.24967

>  <SCORE.INTRA.DIHEDRAL.0>
6.52878

>  <SCORE.INTRA.POLAR>
0

>  <SCORE.INTRA.POLAR.0>
0

>  <SCORE.INTRA.REPUL>
0

>  <SCORE.INTRA.REPUL.0>
0

>  <SCORE.INTRA.VDW>
-266.737

>  <SCORE.INTRA.VDW.0>
264.492

>  <SCORE.INTRA.norm>
-10.6945

>  <SCORE.RESTR>
0

>  <SCORE.RESTR.CAVITY>
0

>  <SCORE.RESTR.norm>
0

>  <SCORE.SYSTEM>
-6.48737

>  <SCORE.SYSTEM.CONST>
0

>  <SCORE.SYSTEM.DIHEDRAL>
8.55776

>  <SCORE.SYSTEM.POLAR>
-4.1793

>  <SCORE.SYSTEM.VDW>
3.44336

>  <SCORE.SYSTEM.norm>
-0.259495

>  <SCORE.heavy>
25

>  <SCORE.norm>
-11.4063

$$$$
F6436-1869
  rDOCK(R)          3D
libRbt.so/2013.1/901 2013/11/27
 25 27  0  0  0  0  0  0  0  0999 V2000
  -16.7060   20.0250  -16.2589 C   0  0  0  0  0  0
  -17.8153   19.1023  -16.0577 N   0  0  0  0  0  0
  -17.2083   17.4662  -16.5156 C   0  0  0  0  0  0
  -18.4804   16.0905  -15.8465 C   0  0  0  0  0  0
  -19.8952   17.2527  -14.9937 C   0  0  0  0  0  0
  -19.2551   18.9660  -15.0239 C   0  0  0  0  0  0
  -19.0181   19.6371  -13.6555 C   0  0  0  0  0  0
  -20.2540   20.1648  -12.9419 N   0  0  0  0  0  0
  -20.8336   19.0418  -12.1630 C   0  0  0  0  0  0
  -21.9506   18.3816  -12.9467 C   0  0  0  0  0  0
  -22.2688   17.0392  -13.0414 C   0  0  0  0  0  0
  -23.3845   16.7942  -13.8972 C   0  0  0  0  0  0
  -23.8986   17.9579  -14.4218 C   0  0  0  0  0  0
  -23.0502   19.3349  -13.8680 S   0  0  0  0  0  0
  -20.8273   21.4525  -12.6713 C   0  0  0  0  0  0
  -21.8851   21.4272  -11.9933 O   0  0  0  0  0  0
  -20.3674   23.0215  -12.9856 C   0  0  0  0  0  0
  -20.8417   24.2391  -12.1762 C   0  0  0  0  0  0
  -20.2222   25.2455  -10.9187 C   0  0  0  0  0  0
  -18.6503   24.6339  -10.3392 Cl  0  0  0  0  0  0
  -21.1989   25.9730   -9.5861 C   0  0  0  0  0  0
  -22.9164   25.6144   -9.3093 C   0  0  0  0  0  0
  -23.6684   24.5075  -10.4781 C   0  0  0  0  0  0
  -22.4427   23.9573  -12.0970 C   0  0  0  0  0  0
  -22.7417   23.9524  -13.4624 F   0  0  0  0  0  0
  1  2  1  0  0  0
  2  3  1  0  0  0
  2  6  1  0  0  0
  3  4  2  0  0  0
  4  5  1  0  0  0
  5  6  2  0  0  0
  6  7  1  0  0  0
  7  8  1  0  0  0
  8  9  1  0  0  0
  8 15  1  0  0  0
  9 10  1  0  0  0
 10 11  2  0  0  0
 10 14  1  0  0  0
 11 12  1  0  0  0
 12 13  2  0  0  0
 13 14  1  0  0  0
 15 16  2  0  0  0
 15 17  1  0  0  0
 17 18  1  0  0  0
 18 19  2  0  0  0
 18 24  1  0  0  0
 19 20  1  0  0  0
 19 21  1  0  0  0
 21 22  2  0  0  0
 22 23  1  0  0  0
 23 24  2  0  0  0
 24 25  1  0  0  0
M  END
>  <CHROM.0>
-61.36076328,-168.19172180,-8.61331118,65.90070010,31.53426694,-176.85799494
-36.60688563,-161.74709453

>  <CHROM.1>
152.91797959,86.20036639,-96.47854455,141.44419699,-156.03478105,100.09121624
-20.77857405,21.02128463,-13.00691358,-1.41598811,0.27163579,0.50337493

>  <Name>
F6436-1869

>  <RI>
4.00695e+07

>  <Rbt.Current_Directory>
/home/adria/Escritorio/rDock_CMTR_LC/2pxcA_model/inputs_sah

>  <Rbt.Executable>
rbdock ($Id: //depot/dev/client3/rdock/2013.1/src/exe/rbdock.cxx#4 $)

>  <Rbt.Library>
libRbt.so (2013.1, Build901 2013/11/27)

>  <Rbt.Parameter_File>
/home/adria/Escritorio/rDock_2013.1_src/data/scripts/dock.prm

>  <Rbt.Receptor>
sah_rdock.prm

>  <SCORE>
-271.303

>  <SCORE.INTER>
-10.6327

>  <SCORE.INTER.CONST>
1

>  <SCORE.INTER.POLAR>
0

>  <SCORE.INTER.REPUL>
0

>  <SCORE.INTER.ROT>
6

>  <SCORE.INTER.VDW>
-22.0327

>  <SCORE.INTER.norm>
-0.425309

>  <SCORE.INTRA>
-266.358

>  <SCORE.INTRA.DIHEDRAL>
1.25409

>  <SCORE.INTRA.DIHEDRAL.0>
6.52878

>  <SCORE.INTRA.POLAR>
0

>  <SCORE.INTRA.POLAR.0>
0

>  <SCORE.INTRA.REPUL>
0

>  <SCORE.INTRA.REPUL.0>
0

>  <SCORE.INTRA.VDW>
-266.985

>  <SCORE.INTRA.VDW.0>
264.492

>  <SCORE.INTRA.norm>
-10.6543

>  <SCORE.RESTR>
0

>  <SCORE.RESTR.CAVITY>
0

>  <SCORE.RESTR.norm>
0

>  <SCORE.SYSTEM>
5.68756

>  <SCORE.SYSTEM.CONST>
0

>  <SCORE.SYSTEM.DIHEDRAL>
9.26227

>  <SCORE.SYSTEM.POLAR>
-4.041

>  <SCORE.SYSTEM.VDW>
14.7958

>  <SCORE.SYSTEM.norm>
0.227502

>  <SCORE.heavy>
25

>  <SCORE.norm>
-10.8521

$$$$
F6436-1869
  rDOCK(R)          3D
libRbt.so/2013.1/901 2013/11/27
 25 27  0  0  0  0  0  0  0  0999 V2000
  -23.5352   25.6117  -12.6555 C   0  0  0  0  0  0
  -22.1920   25.3870  -12.1382 N   0  0  0  0  0  0
  -22.2156   25.9095  -10.4116 C   0  0  0  0  0  0
  -20.5850   25.2217   -9.5023 C   0  0  0  0  0  0
  -19.6559   24.2827  -11.0303 C   0  0  0  0  0  0
  -20.8201   24.2977  -12.4411 C   0  0  0  0  0  0
  -21.3065   22.9245  -12.9477 C   0  0  0  0  0  0
  -20.4841   21.7188  -12.5173 N   0  0  0  0  0  0
  -21.1194   21.1568  -11.2989 C   0  0  0  0  0  0
  -21.9273   19.9233  -11.6502 C   0  0  0  0  0  0
  -21.8427   18.6496  -11.1183 C   0  0  0  0  0  0
  -22.7602   17.7368  -11.7200 C   0  0  0  0  0  0
  -23.5321   18.3415  -12.6856 C   0  0  0  0  0  0
  -23.1624   20.0026  -12.8480 S   0  0  0  0  0  0
  -19.4489   20.9080  -13.0926 C   0  0  0  0  0  0
  -19.0616   19.9557  -12.3700 O   0  0  0  0  0  0
  -18.6720   20.8831  -14.5650 C   0  0  0  0  0  0
  -18.6031   19.6531  -15.4844 C   0  0  0  0  0  0
  -19.3439   18.0975  -15.5790 C   0  0  0  0  0  0
  -20.3923   17.8119  -14.1648 Cl  0  0  0  0  0  0
  -18.5303   16.5850  -16.1353 C   0  0  0  0  0  0
  -16.7983   16.4755  -16.5139 C   0  0  0  0  0  0
  -15.8818   17.9902  -16.3647 C   0  0  0  0  0  0
  -17.0425   19.6938  -15.9444 C   0  0  0  0  0  0
  -17.0194   20.9464  -16.5641 F   0  0  0  0  0  0
  1  2  1  0  0  0
  2  3  1  0  0  0
  2  6  1  0  0  0
  3  4  2  0  0  0
  4  5  1  0  0  0
  5  6  2  0  0  0
  6  7  1  0  0  0
  7  8  1  0  0  0
  8  9  1  0  0  0
  8 15  1  0  0  0
  9 10  1  0  0  0
 10 11  2  0  0  0
 10 14  1  0  0  0
 11 12  1  0  0  0
 12 13  2  0  0  0
 13 14  1  0  0  0
 15 16  2  0  0  0
 15 17  1  0  0  0
 17 18  1  0  0  0
 18 19  2  0  0  0
 18 24  1  0  0  0
 19 20  1  0  0  0
 19 21  1  0  0  0
 21 22  2  0  0  0
 22 23  1  0  0  0
 23 24  2  0  0  0
 24 25  1  0  0  0
M  END
>  <CHROM.0>
-60.83653442,-72.36967918,-167.44342294,-60.50377299,168.06672165,-61.87644278
-157.16036495,-169.60837375

>  <CHROM.1>
-146.22101625,94.65330843,102.07223451,125.20047728,-124.05815614,10.73627280
-20.36974381,20.63616172,-13.32372489,-2.14448321,-0.58053454,-2.88368844

>  <Name>
F6436-1869

>  <RI>
4.00695e+07

>  <Rbt.Current_Directory>
/home/adria/Escritorio/rDock_CMTR_LC/2pxcA_model/inputs_sah

>  <Rbt.Executable>
rbdock ($Id: //depot/dev/client3/rdock/2013.1/src/exe/rbdock.cxx#4 $)

>  <Rbt.Library>
libRbt.so (2013.1, Build901 2013/11/27)

>  <Rbt.Parameter_File>
/home/adria/Escritorio/rDock_2013.1_src/data/scripts/dock.prm

>  <Rbt.Receptor>
sah_rdock.prm

>  <SCORE>
-284.119

>  <SCORE.INTER>
-12.0846

>  <SCORE.INTER.CONST>
1

>  <SCORE.INTER.POLAR>
0

>  <SCORE.INTER.REPUL>
0

>  <SCORE.INTER.ROT>
6

>  <SCORE.INTER.VDW>
-23.4846

>  <SCORE.INTER.norm>
-0.483384

>  <SCORE.INTRA>
-269.503

>  <SCORE.INTRA.DIHEDRAL>
-1.09867

>  <SCORE.INTRA.DIHEDRAL.0>
6.52878

>  <SCORE.INTRA.POLAR>
0

>  <SCORE.INTRA.POLAR.0>
0

>  <SCORE.INTRA.REPUL>
0

>  <SCORE.INTRA.REPUL.0>
0

>  <SCORE.INTRA.VDW>
-268.954

>  <SCORE.INTRA.VDW.0>
264.492

>  <SCORE.INTRA.norm>
-10.7801

>  <SCORE.RESTR>
0

>  <SCORE.RESTR.CAVITY>
0

>  <SCORE.RESTR.norm>
0

>  <SCORE.SYSTEM>
-2.53163

>  <SCORE.SYSTEM.CONST>
0

>  <SCORE.SYSTEM.DIHEDRAL>
3.09461

>  <SCORE.SYSTEM.POLAR>
-3.89358

>  <SCORE.SYSTEM.REPUL>
0.0373905

>  <SCORE.SYSTEM.VDW>
8.97227

>  <SCORE.SYSTEM.norm>
-0.101265

>  <SCORE.heavy>
25

>  <SCORE.norm>
-11.3648

$$$$
F6436-1869
  rDOCK(R)          3D
libRbt.so/2013.1/901 2013/11/27
 25 27  0  0  0  0  0  0  0  0999 V2000
  -24.6240   24.2500  -10.5903 C   0  0  0  0  0  0
  -23.2310   24.6378  -10.7680 N   0  0  0  0  0  0
  -22.5585   24.8986   -9.1143 C   0  0  0  0  0  0
  -20.5735   24.9770   -9.2252 C   0  0  0  0  0  0
  -20.2873   24.7623  -11.2130 C   0  0  0  0  0  0
  -21.9202   24.3719  -11.9391 C   0  0  0  0  0  0
  -22.0597   22.9956  -12.6212 C   0  0  0  0  0  0
  -20.8819   22.0450  -12.4654 N   0  0  0  0  0  0
  -21.0229   21.3710  -11.1502 C   0  0  0  0  0  0
  -21.8111   20.0851  -11.3019 C   0  0  0  0  0  0
  -23.1320   19.8333  -10.9794 C   0  0  0  0  0  0
  -23.5198   18.4862  -11.2475 C   0  0  0  0  0  0
  -22.4885   17.7484  -11.7820 C   0  0  0  0  0  0
  -21.0704   18.6834  -11.9750 S   0  0  0  0  0  0
  -19.8615   21.5060  -13.3187 C   0  0  0  0  0  0
  -19.0779   20.6985  -12.7592 O   0  0  0  0  0  0
  -19.5077   21.6414  -14.9401 C   0  0  0  0  0  0
  -19.3584   20.4455  -15.8942 C   0  0  0  0  0  0
  -20.3268   19.1210  -16.4288 C   0  0  0  0  0  0
  -21.8793   19.0815  -15.5519 Cl  0  0  0  0  0  0
  -19.7161   17.4632  -16.7998 C   0  0  0  0  0  0
  -18.0445   16.9370  -16.5097 C   0  0  0  0  0  0
  -16.9495   18.1779  -15.8634 C   0  0  0  0  0  0
  -17.7750   20.1081  -15.7271 C   0  0  0  0  0  0
  -17.2358   21.3255  -16.1525 F   0  0  0  0  0  0
  1  2  1  0  0  0
  2  3  1  0  0  0
  2  6  1  0  0  0
  3  4  2  0  0  0
  4  5  1  0  0  0
  5  6  2  0  0  0
  6  7  1  0  0  0
  7  8  1  0  0  0
  8  9  1  0  0  0
  8 15  1  0  0  0
  9 10  1  0  0  0
 10 11  2  0  0  0
 10 14  1  0  0  0
 11 12  1  0  0  0
 12 13  2  0  0  0
 13 14  1  0  0  0
 15 16  2  0  0  0
 15 17  1  0  0  0
 17 18  1  0  0  0
 18 19  2  0  0  0
 18 24  1  0  0  0
 19 20  1  0  0  0
 19 21  1  0  0  0
 21 22  2  0  0  0
 22 23  1  0  0  0
 23 24  2  0  0  0
 24 25  1  0  0  0
M  END
>  <CHROM.0>
-178.59638207,64.57965954,110.30343561,66.32991205,168.58553448,-59.20344647
82.50170346,-162.73421133

>  <CHROM.1>
-121.56543842,82.53681722,90.84587965,-102.88905982,-124.79008876,58.53077369
-20.80776712,20.83270650,-13.15515778,2.15786557,0.71221395,0.41724559

>  <Name>
F6436-1869

>  <RI>
4.00695e+07

>  <Rbt.Current_Directory>
/home/adria/Escritorio/rDock_CMTR_LC/2pxcA_model/inputs_sah

>  <Rbt.Executable>
rbdock ($Id: //depot/dev/client3/rdock/2013.1/src/exe/rbdock.cxx#4 $)

>  <Rbt.Library>
libRbt.so (2013.1, Build901 2013/11/27)

>  <Rbt.Parameter_File>
/home/adria/Escritorio/rDock_2013.1_src/data/scripts/dock.prm

>  <Rbt.Receptor>
sah_rdock.prm

>  <SCORE>
-281.86

>  <SCORE.INTER>
-11.7006

>  <SCORE.INTER.CONST>
1

>  <SCORE.INTER.POLAR>
-0.329119

>  <SCORE.INTER.REPUL>
0

>  <SCORE.INTER.ROT>
6

>  <SCORE.INTER.VDW>
-21.9816

>  <SCORE.INTER.norm>
-0.468025

>  <SCORE.INTRA>
-268.593

>  <SCORE.INTRA.DIHEDRAL>
0.127573

>  <SCORE.INTRA.DIHEDRAL.0>
6.52878

>  <SCORE.INTRA.POLAR>
0

>  <SCORE.INTRA.POLAR.0>
0

>  <SCORE.INTRA.REPUL>
0

>  <SCORE.INTRA.REPUL.0>
0

>  <SCORE.INTRA.VDW>
-268.657

>  <SCORE.INTRA.VDW.0>
264.492

>  <SCORE.INTRA.norm>
-10.7437

>  <SCORE.RESTR>
0

>  <SCORE.RESTR.CAVITY>
0

>  <SCORE.RESTR.norm>
0

>  <SCORE.SYSTEM>
-1.56638

>  <SCORE.SYSTEM.CONST>
0

>  <SCORE.SYSTEM.DIHEDRAL>
5.84158

>  <SCORE.SYSTEM.POLAR>
-4.12781

>  <SCORE.SYSTEM.VDW>
9.54738

>  <SCORE.SYSTEM.norm>
-0.0626552

>  <SCORE.heavy>
25

>  <SCORE.norm>
-11.2744

$$$$
F6436-1869
  rDOCK(R)          3D
libRbt.so/2013.1/901 2013/11/27
 25 27  0  0  0  0  0  0  0  0999 V2000
  -25.6978   22.1238  -13.3043 C   0  0  0  0  0  0
  -25.2013   21.1296  -12.3623 N   0  0  0  0  0  0
  -24.8392   19.6484  -13.3267 C   0  0  0  0  0  0
  -23.7379   18.4097  -12.2261 C   0  0  0  0  0  0
  -23.6038   19.4432  -10.4959 C   0  0  0  0  0  0
  -24.3346   21.0903  -10.8107 C   0  0  0  0  0  0
  -23.3885   22.3010  -10.6757 C   0  0  0  0  0  0
  -22.6834   22.7489  -11.9474 N   0  0  0  0  0  0
  -22.6613   24.2333  -11.9466 C   0  0  0  0  0  0
  -21.5464   24.7406  -11.0536 C   0  0  0  0  0  0
  -21.6119   25.6534  -10.0168 C   0  0  0  0  0  0
  -20.3412   25.8995   -9.4154 C   0  0  0  0  0  0
  -19.3407   25.1565   -9.9992 C   0  0  0  0  0  0
  -19.9381   24.1565  -11.2504 S   0  0  0  0  0  0
  -21.8844   22.1292  -12.9661 C   0  0  0  0  0  0
  -21.4630   22.9114  -13.8548 O   0  0  0  0  0  0
  -21.3024   20.5891  -13.2136 C   0  0  0  0  0  0
  -20.7100   20.0929  -14.5423 C   0  0  0  0  0  0
  -21.2235   19.1289  -15.8783 C   0  0  0  0  0  0
  -22.8422   18.4440  -15.5756 Cl  0  0  0  0  0  0
  -20.1738   17.9977  -16.8150 C   0  0  0  0  0  0
  -18.4959   17.6134  -16.3766 C   0  0  0  0  0  0
  -17.8594   18.4646  -14.9529 C   0  0  0  0  0  0
  -19.1422   19.9209  -14.1407 C   0  0  0  0  0  0
  -18.8541   21.2388  -13.7749 F   0  0  0  0  0  0
  1  2  1  0  0  0
  2  3  1  0  0  0
  2  6  1  0  0  0
  3  4  2  0  0  0
  4  5  1  0  0  0
  5  6  2  0  0  0
  6  7  1  0  0  0
  7  8  1  0  0  0
  8  9  1  0  0  0
  8 15  1  0  0  0
  9 10  1  0  0  0
 10 11  2  0  0  0
 10 14  1  0  0  0
 11 12  1  0  0  0
 12 13  2  0  0  0
 13 14  1  0  0  0
 15 16  2  0  0  0
 15 17  1  0  0  0
 17 18  1  0  0  0
 18 19  2  0  0  0
 18 24  1  0  0  0
 19 20  1  0  0  0
 19 21  1  0  0  0
 21 22  2  0  0  0
 22 23  1  0  0  0
 23 24  2  0  0  0
 24 25  1  0  0  0
M  END
>  <CHROM.0>
-61.30527321,68.79167197,111.18200137,66.27393597,-30.24405670,-176.98694769
-37.57724081,-158.87663498

>  <CHROM.1>
-37.04315209,140.60271440,79.88494599,-127.29712554,166.32583439,-101.81703119
-21.68776832,21.39987297,-12.92811633,1.61754411,0.23389341,0.65877232

>  <Name>
F6436-1869

>  <RI>
4.00695e+07

>  <Rbt.Current_Directory>
/home/adria/Escritorio/rDock_CMTR_LC/2pxcA_model/inputs_sah

>  <Rbt.Executable>
rbdock ($Id: //depot/dev/client3/rdock/2013.1/src/exe/rbdock.cxx#4 $)

>  <Rbt.Library>
libRbt.so (2013.1, Build901 2013/11/27)

>  <Rbt.Parameter_File>
/home/adria/Escritorio/rDock_2013.1_src/data/scripts/dock.prm

>  <Rbt.Receptor>
sah_rdock.prm

>  <SCORE>
-283.648

>  <SCORE.INTER>
-6.74452

>  <SCORE.INTER.CONST>
1

>  <SCORE.INTER.POLAR>
0

>  <SCORE.INTER.REPUL>
0

>  <SCORE.INTER.ROT>
6

>  <SCORE.INTER.VDW>
-18.1445

>  <SCORE.INTER.norm>
-0.269781

>  <SCORE.INTRA>
-269.973

>  <SCORE.INTRA.DIHEDRAL>
-1.77201

>  <SCORE.INTRA.DIHEDRAL.0>
6.52878

>  <SCORE.INTRA.POLAR>
0

>  <SCORE.INTRA.POLAR.0>
0

>  <SCORE.INTRA.REPUL>
0

>  <SCORE.INTRA.REPUL.0>
0

>  <SCORE.INTRA.VDW>
-269.087

>  <SCORE.INTRA.VDW.0>
264.492

>  <SCORE.INTRA.norm>
-10.7989

>  <SCORE.RESTR>
0

>  <SCORE.RESTR.CAVITY>
0

>  <SCORE.RESTR.norm>
0

>  <SCORE.SYSTEM>
-6.93111

>  <SCORE.SYSTEM.CONST>
0

>  <SCORE.SYSTEM.DIHEDRAL>
9.29171

>  <SCORE.SYSTEM.POLAR>
-4.29714

>  <SCORE.SYSTEM.VDW>
3.0333

>  <SCORE.SYSTEM.norm>
-0.277244

>  <SCORE.heavy>
25

>  <SCORE.norm>
-11.3459

$$$$
F6436-1869
  rDOCK(R)          3D
libRbt.so/2013.1/901 2013/11/27
 25 27  0  0  0  0  0  0  0  0999 V2000
  -23.9081   24.5298  -13.4841 C   0  0  0  0  0  0
  -22.7085   24.5074  -12.6578 N   0  0  0  0  0  0
  -22.2869   26.2292  -12.3227 C   0  0  0  0  0  0
  -20.9575   26.2966  -10.8438 C   0  0  0  0  0  0
  -20.6964   24.3295  -10.4672 C   0  0  0  0  0  0
  -21.9386   23.4342  -11.4679 C   0  0  0  0  0  0
  -22.9954   22.6235  -10.6900 C   0  0  0  0  0  0
  -22.5743   21.2355  -10.2304 N   0  0  0  0  0  0
  -23.5889   20.7607   -9.2562 C   0  0  0  0  0  0
  -24.8325   20.2882   -9.9827 C   0  0  0  0  0  0
  -25.0439   20.1502  -11.3423 C   0  0  0  0  0  0
  -26.3599   19.6939  -11.6541 C   0  0  0  0  0  0
  -27.1143   19.4810  -10.5229 C   0  0  0  0  0  0
  -26.2310   19.8120   -9.0972 S   0  0  0  0  0  0
  -21.6253   20.2447  -10.6519 C   0  0  0  0  0  0
  -21.6336   19.1851   -9.9765 O   0  0  0  0  0  0
  -20.5387   20.1329  -11.9085 C   0  0  0  0  0  0
  -20.9361   19.9101  -13.3766 C   0  0  0  0  0  0
  -21.4539   18.5934  -14.3645 C   0  0  0  0  0  0
  -21.4125   17.0640  -13.4480 Cl  0  0  0  0  0  0
  -21.0180   18.3549  -16.1000 C   0  0  0  0  0  0
  -19.8606   19.3768  -16.9785 C   0  0  0  0  0  0
  -19.1671   20.7243  -16.0512 C   0  0  0  0  0  0
  -19.9763   20.9890  -14.1274 C   0  0  0  0  0  0
  -20.4337   22.1625  -13.5213 F   0  0  0  0  0  0
  1  2  1  0  0  0
  2  3  1  0  0  0
  2  6  1  0  0  0
  3  4  2  0  0  0
  4  5  1  0  0  0
  5  6  2  0  0  0
  6  7  1  0  0  0
  7  8  1  0  0  0
  8  9  1  0  0  0
  8 15  1  0  0  0
  9 10  1  0  0  0
 10 11  2  0  0  0
 10 14  1  0  0  0
 11 12  1  0  0  0
 12 13  2  0  0  0
 13 14  1  0  0  0
 15 16  2  0  0  0
 15 17  1  0  0  0
 17 18  1  0  0  0
 18 19  2  0  0  0
 18 24  1  0  0  0
 19 20  1  0  0  0
 19 21  1  0  0  0
 21 22  2  0  0  0
 22 23  1  0  0  0
 23 24  2  0  0  0
 24 25  1  0  0  0
M  END
>  <CHROM.0>
179.73606265,-76.22518326,-128.50606339,147.38592030,-29.88802749,-57.37167130
-155.67111114,-167.51634912

>  <CHROM.1>
148.54341157,167.24245907,77.64076640,6.30323254,-71.92626764,-77.08434302
-22.49191131,20.92314517,-12.09260749,-2.72230519,-0.74516149,-2.88202598

>  <Name>
F6436-1869

>  <RI>
4.00695e+07

>  <Rbt.Current_Directory>
/home/adria/Escritorio/rDock_CMTR_LC/2pxcA_model/inputs_sah

>  <Rbt.Executable>
rbdock ($Id: //depot/dev/client3/rdock/2013.1/src/exe/rbdock.cxx#4 $)

>  <Rbt.Library>
libRbt.so (2013.1, Build901 2013/11/27)

>  <Rbt.Parameter_File>
/home/adria/Escritorio/rDock_2013.1_src/data/scripts/dock.prm

>  <Rbt.Receptor>
sah_rdock.prm

>  <SCORE>
-278.928

>  <SCORE.INTER>
-7.53938

>  <SCORE.INTER.CONST>
1

>  <SCORE.INTER.POLAR>
-0.504343

>  <SCORE.INTER.REPUL>
0.0414761

>  <SCORE.INTER.ROT>
6

>  <SCORE.INTER.VDW>
-17.432

>  <SCORE.INTER.norm>
-0.301575

>  <SCORE.INTRA>
-267.788

>  <SCORE.INTRA.DIHEDRAL>
-0.835552

>  <SCORE.INTRA.DIHEDRAL.0>
6.52878

>  <SCORE.INTRA.POLAR>
0

>  <SCORE.INTRA.POLAR.0>
0

>  <SCORE.INTRA.REPUL>
0

>  <SCORE.INTRA.REPUL.0>
0

>  <SCORE.INTRA.VDW>
-267.37

>  <SCORE.INTRA.VDW.0>
264.492

>  <SCORE.INTRA.norm>
-10.7115

>  <SCORE.RESTR>
0.0307377

>  <SCORE.RESTR.CAVITY>
0.0307377

>  <SCORE.RESTR.norm>
0.00122951

>  <SCORE.SYSTEM>
-3.63102

>  <SCORE.SYSTEM.CONST>
0

>  <SCORE.SYSTEM.DIHEDRAL>
13.8745

>  <SCORE.SYSTEM.POLAR>
-4.6329

>  <SCORE.SYSTEM.REPUL>
0.0437793

>  <SCORE.SYSTEM.VDW>
4.96471

>  <SCORE.SYSTEM.norm>
-0.145241

>  <SCORE.heavy>
25

>  <SCORE.norm>
-11.1571

$$$$
F6436-1869
  rDOCK(R)          3D
libRbt.so/2013.1/901 2013/11/27
 25 27  0  0  0  0  0  0  0  0999 V2000
  -14.8649   16.5681  -18.6383 C   0  0  0  0  0  0
  -15.1303   17.5511  -17.5964 N   0  0  0  0  0  0
  -14.1040   18.9859  -17.9747 C   0  0  0  0  0  0
  -14.7286   20.5348  -16.8932 C   0  0  0  0  0  0
  -16.2286   19.6902  -15.8365 C   0  0  0  0  0  0
  -16.4639   18.0071  -16.5129 C   0  0  0  0  0  0
  -17.8305   17.7111  -17.1641 C   0  0  0  0  0  0
  -18.9028   17.1404  -16.2479 N   0  0  0  0  0  0
  -18.3735   15.8781  -15.6730 C   0  0  0  0  0  0
  -17.9092   14.9522  -16.7796 C   0  0  0  0  0  0
  -16.7110   14.2717  -16.8965 C   0  0  0  0  0  0
  -16.6248   13.5056  -18.0977 C   0  0  0  0  0  0
  -17.7661   13.6095  -18.8596 C   0  0  0  0  0  0
  -18.9376   14.6095  -18.1180 S   0  0  0  0  0  0
  -20.1269   17.6089  -15.6630 C   0  0  0  0  0  0
  -20.7040   16.7817  -14.9133 O   0  0  0  0  0  0
  -20.9467   19.0580  -15.6813 C   0  0  0  0  0  0
  -21.2033   19.9208  -14.4353 C   0  0  0  0  0  0
  -20.2614   20.7549  -13.2544 C   0  0  0  0  0  0
  -18.5232   20.4361  -13.4951 Cl  0  0  0  0  0  0
  -20.6840   20.9197  -11.5070 C   0  0  0  0  0  0
  -22.0628   20.1021  -10.7417 C   0  0  0  0  0  0
  -23.0730   19.1215  -11.8255 C   0  0  0  0  0  0
  -22.5703   19.2466  -13.8645 C   0  0  0  0  0  0
  -23.4070   19.4610  -14.9634 F   0  0  0  0  0  0
  1  2  1  0  0  0
  2  3  1  0  0  0
  2  6  1  0  0  0
  3  4  2  0  0  0
  4  5  1  0  0  0
  5  6  2  0  0  0
  6  7  1  0  0  0
  7  8  1  0  0  0
  8  9  1  0  0  0
  8 15  1  0  0  0
  9 10  1  0  0  0
 10 11  2  0  0  0
 10 14  1  0  0  0
 11 12  1  0  0  0
 12 13  2  0  0  0
 13 14  1  0  0  0
 15 16  2  0  0  0
 15 17  1  0  0  0
 17 18  1  0  0  0
 18 19  2  0  0  0
 18 24  1  0  0  0
 19 20  1  0  0  0
 19 21  1  0  0  0
 21 22  2  0  0  0
 22 23  1  0  0  0
 23 24  2  0  0  0
 24 25  1  0  0  0
M  END
>  <CHROM.0>
-178.49754819,-72.66567243,-167.68389551,66.04864585,168.49474668,-60.61398221
-155.86990519,-161.18370269

>  <CHROM.1>
139.96343489,-58.32148516,-53.64077788,130.82395448,-116.40946146,61.40988912
-18.77058338,17.84244040,-15.67884738,-0.85428323,0.37928370,0.55125083

>  <Name>
F6436-1869

>  <RI>
4.00695e+07

>  <Rbt.Current_Directory>
/home/adria/Escritorio/rDock_CMTR_LC/2pxcA_model/inputs_sah

>  <Rbt.Executable>
rbdock ($Id: //depot/dev/client3/rdock/2013.1/src/exe/rbdock.cxx#4 $)

>  <Rbt.Library>
libRbt.so (2013.1, Build901 2013/11/27)

>  <Rbt.Parameter_File>
/home/adria/Escritorio/rDock_2013.1_src/data/scripts/dock.prm

>  <Rbt.Receptor>
sah_rdock.prm

>  <SCORE>
-277.9

>  <SCORE.INTER>
-8.74836

>  <SCORE.INTER.CONST>
1

>  <SCORE.INTER.POLAR>
0

>  <SCORE.INTER.REPUL>
0

>  <SCORE.INTER.ROT>
6

>  <SCORE.INTER.VDW>
-20.1484

>  <SCORE.INTER.norm>
-0.349934

>  <SCORE.INTRA>
-266.803

>  <SCORE.INTRA.DIHEDRAL>
0.0119265

>  <SCORE.INTRA.DIHEDRAL.0>
6.52878

>  <SCORE.INTRA.POLAR>
0

>  <SCORE.INTRA.POLAR.0>
0

>  <SCORE.INTRA.REPUL>
0

>  <SCORE.INTRA.REPUL.0>
0

>  <SCORE.INTRA.VDW>
-266.809

>  <SCORE.INTRA.VDW.0>
264.492

>  <SCORE.INTRA.norm>
-10.6721

>  <SCORE.RESTR>
0

>  <SCORE.RESTR.CAVITY>
0

>  <SCORE.RESTR.norm>
0

>  <SCORE.SYSTEM>
-2.34866

>  <SCORE.SYSTEM.CONST>
0

>  <SCORE.SYSTEM.DIHEDRAL>
3.70431

>  <SCORE.SYSTEM.POLAR>
-3.92346

>  <SCORE.SYSTEM.REPUL>
0.037933

>  <SCORE.SYSTEM.VDW>
8.9493

>  <SCORE.SYSTEM.norm>
-0.0939464

>  <SCORE.heavy>
25

>  <SCORE.norm>
-11.116

$$$$
F6436-1869
  rDOCK(R)          3D
libRbt.so/2013.1/901 2013/11/27
 25 27  0  0  0  0  0  0  0  0999 V2000
  -24.6359   19.2907   -9.0695 C   0  0  0  0  0  0
  -24.0910   19.1276  -10.4107 N   0  0  0  0  0  0
  -25.4855   19.2583  -11.5479 C   0  0  0  0  0  0
  -24.7947   19.5096  -13.3968 C   0  0  0  0  0  0
  -22.8012   19.4470  -13.0779 C   0  0  0  0  0  0
  -22.5604   19.4249  -11.2647 C   0  0  0  0  0  0
  -21.8119   20.6275  -10.6544 C   0  0  0  0  0  0
  -21.2247   21.6258  -11.6413 N   0  0  0  0  0  0
  -21.6314   22.9832  -11.1987 C   0  0  0  0  0  0
  -22.6315   23.5744  -12.1723 C   0  0  0  0  0  0
  -23.5815   22.9272  -12.9410 C   0  0  0  0  0  0
  -24.3337   23.8220  -13.7599 C   0  0  0  0  0  0
  -23.9483   25.1313  -13.5837 C   0  0  0  0  0  0
  -22.7011   25.2769  -12.4237 S   0  0  0  0  0  0
  -20.2483   21.5959  -12.6928 C   0  0  0  0  0  0
  -20.0414   22.7020  -13.2523 O   0  0  0  0  0  0
  -19.2392   20.4253  -13.3123 C   0  0  0  0  0  0
  -19.3925   19.8047  -14.7101 C   0  0  0  0  0  0
  -19.9804   18.3295  -15.3852 C   0  0  0  0  0  0
  -20.4330   17.1830  -14.0961 Cl  0  0  0  0  0  0
  -19.2872   17.4901  -16.8253 C   0  0  0  0  0  0
  -17.7978   18.0023  -17.6467 C   0  0  0  0  0  0
  -17.0233   19.4620  -16.9939 C   0  0  0  0  0  0
  -18.1046   20.4392  -15.4767 C   0  0  0  0  0  0
  -18.4110   21.7973  -15.3526 F   0  0  0  0  0  0
  1  2  1  0  0  0
  2  3  1  0  0  0
  2  6  1  0  0  0
  3  4  2  0  0  0
  4  5  1  0  0  0
  5  6  2  0  0  0
  6  7  1  0  0  0
  7  8  1  0  0  0
  8  9  1  0  0  0
  8 15  1  0  0  0
  9 10  1  0  0  0
 10 11  2  0  0  0
 10 14  1  0  0  0
 11 12  1  0  0  0
 12 13  2  0  0  0
 13 14  1  0  0  0
 15 16  2  0  0  0
 15 17  1  0  0  0
 17 18  1  0  0  0
 18 19  2  0  0  0
 18 24  1  0  0  0
 19 20  1  0  0  0
 19 21  1  0  0  0
 21 22  2  0  0  0
 22 23  1  0  0  0
 23 24  2  0  0  0
 24 25  1  0  0  0
M  END
>  <CHROM.0>
177.40188656,-73.84131628,111.40052619,66.22592481,-30.92677809,-179.25139246
81.86755300,-165.34692010

>  <CHROM.1>
-135.29072949,131.33270298,-110.53180609,31.51624135,111.20664846,-103.10566717
-21.42567926,20.81455922,-13.29635689,2.58472265,0.70237244,-0.01321389

>  <Name>
F6436-1869

>  <RI>
4.00695e+07

>  <Rbt.Current_Directory>
/home/adria/Escritorio/rDock_CMTR_LC/2pxcA_model/inputs_sah

>  <Rbt.Executable>
rbdock ($Id: //depot/dev/client3/rdock/2013.1/src/exe/rbdock.cxx#4 $)

>  <Rbt.Library>
libRbt.so (2013.1, Build901 2013/11/27)

>  <Rbt.Parameter_File>
/home/adria/Escritorio/rDock_2013.1_src/data/scripts/dock.prm

>  <Rbt.Receptor>
sah_rdock.prm

>  <SCORE>
-284.6

>  <SCORE.INTER>
-9.11733

>  <SCORE.INTER.CONST>
1

>  <SCORE.INTER.POLAR>
0

>  <SCORE.INTER.REPUL>
0

>  <SCORE.INTER.ROT>
6

>  <SCORE.INTER.VDW>
-20.5173

>  <SCORE.INTER.norm>
-0.364693

>  <SCORE.INTRA>
-268.553

>  <SCORE.INTRA.DIHEDRAL>
-0.0499132

>  <SCORE.INTRA.DIHEDRAL.0>
6.52878

>  <SCORE.INTRA.POLAR>
0

>  <SCORE.INTRA.POLAR.0>
0

>  <SCORE.INTRA.REPUL>
0

>  <SCORE.INTRA.REPUL.0>
0

>  <SCORE.INTRA.VDW>
-268.528

>  <SCORE.INTRA.VDW.0>
264.492

>  <SCORE.INTRA.norm>
-10.7421

>  <SCORE.RESTR>
0

>  <SCORE.RESTR.CAVITY>
0

>  <SCORE.RESTR.norm>
0

>  <SCORE.SYSTEM>
-6.93022

>  <SCORE.SYSTEM.CONST>
0

>  <SCORE.SYSTEM.DIHEDRAL>
9.33861

>  <SCORE.SYSTEM.POLAR>
-4.53908

>  <SCORE.SYSTEM.REPUL>
0.0400032

>  <SCORE.SYSTEM.VDW>
3.63332

>  <SCORE.SYSTEM.norm>
-0.277209

>  <SCORE.heavy>
25

>  <SCORE.norm>
-11.384

$$$$
F6436-1869
  rDOCK(R)          3D
libRbt.so/2013.1/901 2013/11/27
 25 27  0  0  0  0  0  0  0  0999 V2000
  -24.9152   18.7036   -9.0139 C   0  0  0  0  0  0
  -24.6154   19.0201  -10.4040 N   0  0  0  0  0  0
  -26.1667   19.5589  -11.1511 C   0  0  0  0  0  0
  -25.7777   20.4410  -12.8916 C   0  0  0  0  0  0
  -23.7691   20.2493  -12.9831 C   0  0  0  0  0  0
  -23.2312   19.5846  -11.3661 C   0  0  0  0  0  0
  -22.3045   20.4858  -10.5246 C   0  0  0  0  0  0
  -21.5363   21.5570  -11.2845 N   0  0  0  0  0  0
  -22.0720   22.8754  -10.8618 C   0  0  0  0  0  0
  -23.1117   23.3609  -11.8523 C   0  0  0  0  0  0
  -24.4885   23.3826  -11.7250 C   0  0  0  0  0  0
  -25.1433   23.8966  -12.8844 C   0  0  0  0  0  0
  -24.2480   24.2681  -13.8612 C   0  0  0  0  0  0
  -22.6299   24.0148  -13.3711 S   0  0  0  0  0  0
  -20.3451   21.6122  -12.0833 C   0  0  0  0  0  0
  -20.0477   22.7566  -12.5087 O   0  0  0  0  0  0
  -19.1882   20.5003  -12.5275 C   0  0  0  0  0  0
  -19.3629   19.4791  -13.6630 C   0  0  0  0  0  0
  -18.9858   19.3743  -15.3436 C   0  0  0  0  0  0
  -18.3039   20.9132  -15.9333 Cl  0  0  0  0  0  0
  -20.0030   18.5611  -16.5939 C   0  0  0  0  0  0
  -21.6167   17.8914  -16.2734 C   0  0  0  0  0  0
  -22.1811   18.0169  -14.5934 C   0  0  0  0  0  0
  -20.7640   18.7709  -13.2336 C   0  0  0  0  0  0
  -20.3919   18.2672  -11.9840 F   0  0  0  0  0  0
  1  2  1  0  0  0
  2  3  1  0  0  0
  2  6  1  0  0  0
  3  4  2  0  0  0
  4  5  1  0  0  0
  5  6  2  0  0  0
  6  7  1  0  0  0
  7  8  1  0  0  0
  8  9  1  0  0  0
  8 15  1  0  0  0
  9 10  1  0  0  0
 10 11  2  0  0  0
 10 14  1  0  0  0
 11 12  1  0  0  0
 12 13  2  0  0  0
 13 14  1  0  0  0
 15 16  2  0  0  0
 15 17  1  0  0  0
 17 18  1  0  0  0
 18 19  2  0  0  0
 18 24  1  0  0  0
 19 20  1  0  0  0
 19 21  1  0  0  0
 21 22  2  0  0  0
 22 23  1  0  0  0
 23 24  2  0  0  0
 24 25  1  0  0  0
M  END
>  <CHROM.0>
-59.72227705,65.43147026,-165.76573955,66.52412735,-29.25314084,63.75464877
-37.29084696,-161.22616510

>  <CHROM.1>
-150.46587177,112.28647206,-96.51601675,104.45122361,80.08543669,94.01977862
-21.98179054,20.85656848,-12.91805819,2.94773405,0.64534379,-0.12767521

>  <Name>
F6436-1869

>  <RI>
4.00695e+07

>  <Rbt.Current_Directory>
/home/adria/Escritorio/rDock_CMTR_LC/2pxcA_model/inputs_sah

>  <Rbt.Executable>
rbdock ($Id: //depot/dev/client3/rdock/2013.1/src/exe/rbdock.cxx#4 $)

>  <Rbt.Library>
libRbt.so (2013.1, Build901 2013/11/27)

>  <Rbt.Parameter_File>
/home/adria/Escritorio/rDock_2013.1_src/data/scripts/dock.prm

>  <Rbt.Receptor>
sah_rdock.prm

>  <SCORE>
-282.304

>  <SCORE.INTER>
-5.86402

>  <SCORE.INTER.CONST>
1

>  <SCORE.INTER.POLAR>
0

>  <SCORE.INTER.REPUL>
0

>  <SCORE.INTER.ROT>
6

>  <SCORE.INTER.VDW>
-17.264

>  <SCORE.INTER.norm>
-0.234561

>  <SCORE.INTRA>
-269.448

>  <SCORE.INTRA.DIHEDRAL>
0.463377

>  <SCORE.INTRA.DIHEDRAL.0>
6.52878

>  <SCORE.INTRA.POLAR>
0

>  <SCORE.INTRA.POLAR.0>
0

>  <SCORE.INTRA.REPUL>
0

>  <SCORE.INTRA.REPUL.0>
0

>  <SCORE.INTRA.VDW>
-269.68

>  <SCORE.INTRA.VDW.0>
264.492

>  <SCORE.INTRA.norm>
-10.7779

>  <SCORE.RESTR>
0

>  <SCORE.RESTR.CAVITY>
0

>  <SCORE.RESTR.norm>
0

>  <SCORE.SYSTEM>
-6.99217

>  <SCORE.SYSTEM.CONST>
0

>  <SCORE.SYSTEM.DIHEDRAL>
6.23251

>  <SCORE.SYSTEM.POLAR>
-3.67341

>  <SCORE.SYSTEM.VDW>
2.38118

>  <SCORE.SYSTEM.norm>
-0.279687

>  <SCORE.heavy>
25

>  <SCORE.norm>
-11.2922

$$$$
F6436-1869
  rDOCK(R)          3D
libRbt.so/2013.1/901 2013/11/27
 25 27  0  0  0  0  0  0  0  0999 V2000
  -18.9765   21.6633  -15.4782 C   0  0  0  0  0  0
  -19.3076   20.2710  -15.7506 N   0  0  0  0  0  0
  -18.2466   19.7511  -17.1140 C   0  0  0  0  0  0
  -18.2913   17.7667  -17.2517 C   0  0  0  0  0  0
  -19.5844   17.3042  -15.7706 C   0  0  0  0  0  0
  -19.9228   18.8573  -14.8655 C   0  0  0  0  0  0
  -19.4898   18.9007  -13.3857 C   0  0  0  0  0  0
  -20.4622   19.5607  -12.4193 N   0  0  0  0  0  0
  -20.9559   18.5093  -11.4949 C   0  0  0  0  0  0
  -22.1460   17.7936  -12.1025 C   0  0  0  0  0  0
  -22.2528   17.1811  -13.3377 C   0  0  0  0  0  0
  -23.5471   16.6263  -13.5701 C   0  0  0  0  0  0
  -24.3905   16.8167  -12.4995 C   0  0  0  0  0  0
  -23.6164   17.6423  -11.2183 S   0  0  0  0  0  0
  -20.8194   20.9035  -12.0596 C   0  0  0  0  0  0
  -21.6853   20.9944  -11.1534 O   0  0  0  0  0  0
  -20.2861   22.4129  -12.5174 C   0  0  0  0  0  0
  -20.7299   23.7246  -11.8502 C   0  0  0  0  0  0
  -20.0241   24.9406  -10.8496 C   0  0  0  0  0  0
  -18.3621   24.4887  -10.3865 Cl  0  0  0  0  0  0
  -20.8756   25.8328   -9.5314 C   0  0  0  0  0  0
  -22.5248   25.4577   -8.9885 C   0  0  0  0  0  0
  -23.3456   24.1516   -9.8700 C   0  0  0  0  0  0
  -22.2914   23.3985  -11.5275 C   0  0  0  0  0  0
  -22.7496   23.1656  -12.8272 F   0  0  0  0  0  0
  1  2  1  0  0  0
  2  3  1  0  0  0
  2  6  1  0  0  0
  3  4  2  0  0  0
  4  5  1  0  0  0
  5  6  2  0  0  0
  6  7  1  0  0  0
  7  8  1  0  0  0
  8  9  1  0  0  0
  8 15  1  0  0  0
  9 10  1  0  0  0
 10 11  2  0  0  0
 10 14  1  0  0  0
 11 12  1  0  0  0
 12 13  2  0  0  0
 13 14  1  0  0  0
 15 16  2  0  0  0
 15 17  1  0  0  0
 17 18  1  0  0  0
 18 19  2  0  0  0
 18 24  1  0  0  0
 19 20  1  0  0  0
 19 21  1  0  0  0
 21 22  2  0  0  0
 22 23  1  0  0  0
 23 24  2  0  0  0
 24 25  1  0  0  0
M  END
>  <CHROM.0>
-172.97768712,67.59240006,-130.07556896,66.32506837,-30.91672909,62.23226693
81.45035350,-161.19627582

>  <CHROM.1>
92.33211139,114.23378987,-86.04658984,53.54575103,-172.40968438,110.61127619
-20.98175676,20.81420563,-12.51637692,-1.64490327,0.69499681,0.55233936

>  <Name>
F6436-1869

>  <RI>
4.00695e+07

>  <Rbt.Current_Directory>
/home/adria/Escritorio/rDock_CMTR_LC/2pxcA_model/inputs_sah

>  <Rbt.Executable>
rbdock ($Id: //depot/dev/client3/rdock/2013.1/src/exe/rbdock.cxx#4 $)

>  <Rbt.Library>
libRbt.so (2013.1, Build901 2013/11/27)

>  <Rbt.Parameter_File>
/home/adria/Escritorio/rDock_2013.1_src/data/scripts/dock.prm

>  <Rbt.Receptor>
sah_rdock.prm

>  <SCORE>
-283.79

>  <SCORE.INTER>
-12.6543

>  <SCORE.INTER.CONST>
1

>  <SCORE.INTER.POLAR>
0

>  <SCORE.INTER.REPUL>
0

>  <SCORE.INTER.ROT>
6

>  <SCORE.INTER.VDW>
-24.0543

>  <SCORE.INTER.norm>
-0.50617

>  <SCORE.INTRA>
-265.047

>  <SCORE.INTRA.DIHEDRAL>
1.64944

>  <SCORE.INTRA.DIHEDRAL.0>
6.52878

>  <SCORE.INTRA.POLAR>
0

>  <SCORE.INTRA.POLAR.0>
0

>  <SCORE.INTRA.REPUL>
0

>  <SCORE.INTRA.REPUL.0>
0

>  <SCORE.INTRA.VDW>
-265.872

>  <SCORE.INTRA.VDW.0>
264.492

>  <SCORE.INTRA.norm>
-10.6019

>  <SCORE.RESTR>
0

>  <SCORE.RESTR.CAVITY>
0

>  <SCORE.RESTR.norm>
0

>  <SCORE.SYSTEM>
-6.08858

>  <SCORE.SYSTEM.CONST>
0

>  <SCORE.SYSTEM.DIHEDRAL>
9.03161

>  <SCORE.SYSTEM.POLAR>
-4.1158

>  <SCORE.SYSTEM.VDW>
3.38935

>  <SCORE.SYSTEM.norm>
-0.243543

>  <SCORE.heavy>
25

>  <SCORE.norm>
-11.3516

$$$$
F6436-1869
  rDOCK(R)          3D
libRbt.so/2013.1/901 2013/11/27
 25 27  0  0  0  0  0  0  0  0999 V2000
  -22.7963   20.6710  -10.2040 C   0  0  0  0  0  0
  -23.7618   20.2903  -11.2264 N   0  0  0  0  0  0
  -25.1898   21.3710  -11.0080 C   0  0  0  0  0  0
  -26.3508   21.2472  -12.6191 C   0  0  0  0  0  0
  -25.3405   19.8894  -13.7216 C   0  0  0  0  0  0
  -23.7555   19.5883  -12.8596 C   0  0  0  0  0  0
  -22.4720   19.9756  -13.6224 C   0  0  0  0  0  0
  -21.2430   20.2586  -12.7711 N   0  0  0  0  0  0
  -20.6823   18.9509  -12.3476 C   0  0  0  0  0  0
  -19.9272   18.3082  -13.4941 C   0  0  0  0  0  0
  -20.1948   17.1224  -14.1533 C   0  0  0  0  0  0
  -19.2425   16.8308  -15.1757 C   0  0  0  0  0  0
  -18.2808   17.8096  -15.2803 C   0  0  0  0  0  0
  -18.5400   19.0784  -14.1643 S   0  0  0  0  0  0
  -20.4151   21.3961  -12.4871 C   0  0  0  0  0  0
  -19.4461   21.1654  -11.7210 O   0  0  0  0  0  0
  -20.3887   22.9769  -13.0094 C   0  0  0  0  0  0
  -20.9068   24.1671  -12.1863 C   0  0  0  0  0  0
  -20.3080   25.2092  -10.9480 C   0  0  0  0  0  0
  -18.6874   24.6884  -10.4156 Cl  0  0  0  0  0  0
  -21.2840   25.8827   -9.5868 C   0  0  0  0  0  0
  -22.9695   25.4280   -9.2588 C   0  0  0  0  0  0
  -23.6922   24.2783  -10.4045 C   0  0  0  0  0  0
  -22.4862   23.7955  -12.0593 C   0  0  0  0  0  0
  -22.8250   23.7712  -13.4151 F   0  0  0  0  0  0
  1  2  1  0  0  0
  2  3  1  0  0  0
  2  6  1  0  0  0
  3  4  2  0  0  0
  4  5  1  0  0  0
  5  6  2  0  0  0
  6  7  1  0  0  0
  7  8  1  0  0  0
  8  9  1  0  0  0
  8 15  1  0  0  0
  9 10  1  0  0  0
 10 11  2  0  0  0
 10 14  1  0  0  0
 11 12  1  0  0  0
 12 13  2  0  0  0
 13 14  1  0  0  0
 15 16  2  0  0  0
 15 17  1  0  0  0
 17 18  1  0  0  0
 18 19  2  0  0  0
 18 24  1  0  0  0
 19 20  1  0  0  0
 19 21  1  0  0  0
 21 22  2  0  0  0
 22 23  1  0  0  0
 23 24  2  0  0  0
 24 25  1  0  0  0
M  END
>  <CHROM.0>
-63.05373397,-73.68763157,75.38760791,68.93870334,-29.97564830,-66.12468855
82.91400908,-161.68103912

>  <CHROM.1>
27.48638696,77.78480664,76.84145393,-116.78205824,102.92772707,83.94098609
-21.32798720,21.45805141,-12.30937167,1.83520127,0.09462619,0.48390832

>  <Name>
F6436-1869

>  <RI>
4.00695e+07

>  <Rbt.Current_Directory>
/home/adria/Escritorio/rDock_CMTR_LC/2pxcA_model/inputs_sah

>  <Rbt.Executable>
rbdock ($Id: //depot/dev/client3/rdock/2013.1/src/exe/rbdock.cxx#4 $)

>  <Rbt.Library>
libRbt.so (2013.1, Build901 2013/11/27)

>  <Rbt.Parameter_File>
/home/adria/Escritorio/rDock_2013.1_src/data/scripts/dock.prm

>  <Rbt.Receptor>
sah_rdock.prm

>  <SCORE>
-285.972

>  <SCORE.INTER>
-9.92093

>  <SCORE.INTER.CONST>
1

>  <SCORE.INTER.POLAR>
0

>  <SCORE.INTER.REPUL>
0

>  <SCORE.INTER.ROT>
6

>  <SCORE.INTER.VDW>
-21.3209

>  <SCORE.INTER.norm>
-0.396837

>  <SCORE.INTRA>
-268.47

>  <SCORE.INTRA.DIHEDRAL>
0.283982

>  <SCORE.INTRA.DIHEDRAL.0>
6.52878

>  <SCORE.INTRA.POLAR>
0

>  <SCORE.INTRA.POLAR.0>
0

>  <SCORE.INTRA.REPUL>
0

>  <SCORE.INTRA.REPUL.0>
0

>  <SCORE.INTRA.VDW>
-268.612

>  <SCORE.INTRA.VDW.0>
264.492

>  <SCORE.INTRA.norm>
-10.7388

>  <SCORE.RESTR>
0

>  <SCORE.RESTR.CAVITY>
0

>  <SCORE.RESTR.norm>
0

>  <SCORE.SYSTEM>
-7.58171

>  <SCORE.SYSTEM.CONST>
0

>  <SCORE.SYSTEM.DIHEDRAL>
7.18975

>  <SCORE.SYSTEM.POLAR>
-4.07885

>  <SCORE.SYSTEM.REPUL>
0.0397403

>  <SCORE.SYSTEM.VDW>
2.49281

>  <SCORE.SYSTEM.norm>
-0.303268

>  <SCORE.heavy>
25

>  <SCORE.norm>
-11.4389

$$$$
F6436-1869
  rDOCK(R)          3D
libRbt.so/2013.1/901 2013/11/27
 25 27  0  0  0  0  0  0  0  0999 V2000
  -25.6273   21.9958  -12.2868 C   0  0  0  0  0  0
  -25.3905   21.4738  -10.9474 N   0  0  0  0  0  0
  -25.3121   19.6783  -11.1055 C   0  0  0  0  0  0
  -24.5428   18.9123   -9.4382 C   0  0  0  0  0  0
  -24.2621   20.5825   -8.3376 C   0  0  0  0  0  0
  -24.6144   22.0010   -9.4375 C   0  0  0  0  0  0
  -23.4395   22.9581   -9.7252 C   0  0  0  0  0  0
  -22.6523   22.6927  -10.9999 N   0  0  0  0  0  0
  -22.3577   24.0069  -11.6246 C   0  0  0  0  0  0
  -21.0429   24.5522  -11.1034 C   0  0  0  0  0  0
  -19.8300   23.9037  -10.9598 C   0  0  0  0  0  0
  -18.8149   24.7440  -10.4118 C   0  0  0  0  0  0
  -19.2755   26.0172  -10.1653 C   0  0  0  0  0  0
  -20.9160   26.1979  -10.6112 S   0  0  0  0  0  0
  -21.9714   21.5739  -11.5870 C   0  0  0  0  0  0
  -21.4051   21.8163  -12.6823 O   0  0  0  0  0  0
  -21.6801   20.0060  -11.1084 C   0  0  0  0  0  0
  -20.9342   18.9672  -11.9612 C   0  0  0  0  0  0
  -19.4088   18.8399  -12.7579 C   0  0  0  0  0  0
  -18.5065   20.3738  -12.6397 Cl  0  0  0  0  0  0
  -19.1182   18.0027  -14.3306 C   0  0  0  0  0  0
  -20.4107   17.3286  -15.3458 C   0  0  0  0  0  0
  -22.0564   17.4757  -14.6928 C   0  0  0  0  0  0
  -22.1727   18.2576  -12.7432 C   0  0  0  0  0  0
  -22.8896   17.7744  -11.6449 F   0  0  0  0  0  0
  1  2  1  0  0  0
  2  3  1  0  0  0
  2  6  1  0  0  0
  3  4  2  0  0  0
  4  5  1  0  0  0
  5  6  2  0  0  0
  6  7  1  0  0  0
  7  8  1  0  0  0
  8  9  1  0  0  0
  8 15  1  0  0  0
  9 10  1  0  0  0
 10 11  2  0  0  0
 10 14  1  0  0  0
 11 12  1  0  0  0
 12 13  2  0  0  0
 13 14  1  0  0  0
 15 16  2  0  0  0
 15 17  1  0  0  0
 17 18  1  0  0  0
 18 19  2  0  0  0
 18 24  1  0  0  0
 19 20  1  0  0  0
 19 21  1  0  0  0
 21 22  2  0  0  0
 22 23  1  0  0  0
 23 24  2  0  0  0
 24 25  1  0  0  0
M  END
>  <CHROM.0>
-178.16240420,-71.89683394,-130.40033068,64.89006598,-31.10136524,-176.11198774
83.70641654,-160.00200128

>  <CHROM.1>
-33.81674592,139.03337879,89.60966746,46.58910261,178.34371596,55.03914958
-21.73833288,21.38438198,-11.56864826,1.51031037,0.37248416,0.37998934

>  <Name>
F6436-1869

>  <RI>
4.00695e+07

>  <Rbt.Current_Directory>
/home/adria/Escritorio/rDock_CMTR_LC/2pxcA_model/inputs_sah

>  <Rbt.Executable>
rbdock ($Id: //depot/dev/client3/rdock/2013.1/src/exe/rbdock.cxx#4 $)

>  <Rbt.Library>
libRbt.so (2013.1, Build901 2013/11/27)

>  <Rbt.Parameter_File>
/home/adria/Escritorio/rDock_2013.1_src/data/scripts/dock.prm

>  <Rbt.Receptor>
sah_rdock.prm

>  <SCORE>
-287.89

>  <SCORE.INTER>
-12.4869

>  <SCORE.INTER.CONST>
1

>  <SCORE.INTER.POLAR>
0

>  <SCORE.INTER.REPUL>
0

>  <SCORE.INTER.ROT>
6

>  <SCORE.INTER.VDW>
-23.8869

>  <SCORE.INTER.norm>
-0.499477

>  <SCORE.INTRA>
-268.762

>  <SCORE.INTRA.DIHEDRAL>
0.927871

>  <SCORE.INTRA.DIHEDRAL.0>
6.52878

>  <SCORE.INTRA.POLAR>
0

>  <SCORE.INTRA.POLAR.0>
0

>  <SCORE.INTRA.REPUL>
0

>  <SCORE.INTRA.REPUL.0>
0

>  <SCORE.INTRA.VDW>
-269.226

>  <SCORE.INTRA.VDW.0>
264.492

>  <SCORE.INTRA.norm>
-10.7505

>  <SCORE.RESTR>
0

>  <SCORE.RESTR.CAVITY>
0

>  <SCORE.RESTR.norm>
0

>  <SCORE.SYSTEM>
-6.6408

>  <SCORE.SYSTEM.CONST>
0

>  <SCORE.SYSTEM.DIHEDRAL>
9.35873

>  <SCORE.SYSTEM.POLAR>
-4.46946

>  <SCORE.SYSTEM.REPUL>
0.0365063

>  <SCORE.SYSTEM.VDW>
3.69348

>  <SCORE.SYSTEM.norm>
-0.265632

>  <SCORE.heavy>
25

>  <SCORE.norm>
-11.5156

$$$$
F6436-1869
  rDOCK(R)          3D
libRbt.so/2013.1/901 2013/11/27
 25 27  0  0  0  0  0  0  0  0999 V2000
  -25.9538   23.7155   -9.1525 C   0  0  0  0  0  0
  -24.8606   22.7533   -9.1886 N   0  0  0  0  0  0
  -25.4691   21.2585   -8.3822 C   0  0  0  0  0  0
  -24.2324   19.7531   -8.7859 C   0  0  0  0  0  0
  -22.8337   20.6891   -9.9026 C   0  0  0  0  0  0
  -23.4555   22.3813  -10.2122 C   0  0  0  0  0  0
  -23.7289   22.7566  -11.6831 C   0  0  0  0  0  0
  -22.5052   22.9533  -12.5657 N   0  0  0  0  0  0
  -22.1997   24.4059  -12.5884 C   0  0  0  0  0  0
  -21.1146   24.7292  -11.5805 C   0  0  0  0  0  0
  -19.9938   23.9919  -11.2450 C   0  0  0  0  0  0
  -19.2065   24.6132  -10.2295 C   0  0  0  0  0  0
  -19.7391   25.8166   -9.8268 C   0  0  0  0  0  0
  -21.1679   26.1989  -10.6840 S   0  0  0  0  0  0
  -21.5034   22.1118  -13.1558 C   0  0  0  0  0  0
  -20.6218   22.7213  -13.8119 O   0  0  0  0  0  0
  -21.1795   20.4792  -13.1105 C   0  0  0  0  0  0
  -19.8289   19.8557  -13.4975 C   0  0  0  0  0  0
  -18.5109   20.2343  -14.5451 C   0  0  0  0  0  0
  -18.8719   21.6896  -15.5109 Cl  0  0  0  0  0  0
  -17.5341   19.0317  -15.4717 C   0  0  0  0  0  0
  -17.9096   17.2970  -15.5431 C   0  0  0  0  0  0
  -19.3104   16.7739  -14.5836 C   0  0  0  0  0  0
  -20.1720   18.2690  -13.3802 C   0  0  0  0  0  0
  -20.5294   18.2117  -12.0302 F   0  0  0  0  0  0
  1  2  1  0  0  0
  2  3  1  0  0  0
  2  6  1  0  0  0
  3  4  2  0  0  0
  4  5  1  0  0  0
  5  6  2  0  0  0
  6  7  1  0  0  0
  7  8  1  0  0  0
  8  9  1  0  0  0
  8 15  1  0  0  0
  9 10  1  0  0  0
 10 11  2  0  0  0
 10 14  1  0  0  0
 11 12  1  0  0  0
 12 13  2  0  0  0
 13 14  1  0  0  0
 15 16  2  0  0  0
 15 17  1  0  0  0
 17 18  1  0  0  0
 18 19  2  0  0  0
 18 24  1  0  0  0
 19 20  1  0  0  0
 19 21  1  0  0  0
 21 22  2  0  0  0
 22 23  1  0  0  0
 23 24  2  0  0  0
 24 25  1  0  0  0
M  END
>  <CHROM.0>
-178.64845521,-167.17681797,110.48236394,-60.62034535,-30.70179442,-60.30172398
-159.44913825,-164.41992052

>  <CHROM.1>
159.46961608,-95.57784807,97.28831241,37.96816507,-161.81575332,-27.86303595
-21.18344905,21.91666893,-12.15125018,2.35863363,0.69988901,0.22642999

>  <Name>
F6436-1869

>  <RI>
4.00695e+07

>  <Rbt.Current_Directory>
/home/adria/Escritorio/rDock_CMTR_LC/2pxcA_model/inputs_sah

>  <Rbt.Executable>
rbdock ($Id: //depot/dev/client3/rdock/2013.1/src/exe/rbdock.cxx#4 $)

>  <Rbt.Library>
libRbt.so (2013.1, Build901 2013/11/27)

>  <Rbt.Parameter_File>
/home/adria/Escritorio/rDock_2013.1_src/data/scripts/dock.prm

>  <Rbt.Receptor>
sah_rdock.prm

>  <SCORE>
-286.759

>  <SCORE.INTER>
-15.1363

>  <SCORE.INTER.CONST>
1

>  <SCORE.INTER.POLAR>
0

>  <SCORE.INTER.REPUL>
0.00103301

>  <SCORE.INTER.ROT>
6

>  <SCORE.INTER.VDW>
-26.5415

>  <SCORE.INTER.norm>
-0.605452

>  <SCORE.INTRA>
-265.92

>  <SCORE.INTRA.DIHEDRAL>
1.1944

>  <SCORE.INTRA.DIHEDRAL.0>
6.52878

>  <SCORE.INTRA.POLAR>
0

>  <SCORE.INTRA.POLAR.0>
0

>  <SCORE.INTRA.REPUL>
0

>  <SCORE.INTRA.REPUL.0>
0

>  <SCORE.INTRA.VDW>
-266.517

>  <SCORE.INTRA.VDW.0>
264.492

>  <SCORE.INTRA.norm>
-10.6368

>  <SCORE.RESTR>
0

>  <SCORE.RESTR.CAVITY>
0

>  <SCORE.RESTR.norm>
0

>  <SCORE.SYSTEM>
-5.70287

>  <SCORE.SYSTEM.CONST>
0

>  <SCORE.SYSTEM.DIHEDRAL>
8.93299

>  <SCORE.SYSTEM.POLAR>
-4.22931

>  <SCORE.SYSTEM.VDW>
4.21029

>  <SCORE.SYSTEM.norm>
-0.228115

>  <SCORE.heavy>
25

>  <SCORE.norm>
-11.4704

$$$$
F6436-1869
  rDOCK(R)          3D
libRbt.so/2013.1/901 2013/11/27
 25 27  0  0  0  0  0  0  0  0999 V2000
  -20.8302   17.4638  -15.1600 C   0  0  0  0  0  0
  -20.0743   18.4694  -14.4254 N   0  0  0  0  0  0
  -19.8073   19.8417  -15.5658 C   0  0  0  0  0  0
  -19.1991   21.4324  -14.5370 C   0  0  0  0  0  0
  -19.1373   20.6818  -12.6629 C   0  0  0  0  0  0
  -19.8711   19.0082  -12.7435 C   0  0  0  0  0  0
  -21.1629   18.7825  -11.9314 C   0  0  0  0  0  0
  -22.4328   19.3953  -12.5031 N   0  0  0  0  0  0
  -23.4944   18.3592  -12.4441 C   0  0  0  0  0  0
  -24.5103   18.7097  -11.3751 C   0  0  0  0  0  0
  -25.8906   18.7160  -11.4580 C   0  0  0  0  0  0
  -26.5160   19.1247  -10.2419 C   0  0  0  0  0  0
  -25.5966   19.4054   -9.2571 C   0  0  0  0  0  0
  -23.9927   19.1578   -9.7946 S   0  0  0  0  0  0
  -22.8867   20.7122  -12.8491 C   0  0  0  0  0  0
  -24.0667   20.7680  -13.2775 O   0  0  0  0  0  0
  -22.2274   22.2373  -12.7405 C   0  0  0  0  0  0
  -21.9818   22.9797  -11.4171 C   0  0  0  0  0  0
  -22.8194   23.2307   -9.9295 C   0  0  0  0  0  0
  -24.4531   22.5184   -9.9984 Cl  0  0  0  0  0  0
  -22.7832   24.7489   -8.9534 C   0  0  0  0  0  0
  -21.9944   26.2487   -9.4862 C   0  0  0  0  0  0
  -21.1685   26.1664  -11.0571 C   0  0  0  0  0  0
  -21.1086   24.2535  -11.9308 C   0  0  0  0  0  0
  -20.0193   23.5753  -12.4850 F   0  0  0  0  0  0
  1  2  1  0  0  0
  2  3  1  0  0  0
  2  6  1  0  0  0
  3  4  2  0  0  0
  4  5  1  0  0  0
  5  6  2  0  0  0
  6  7  1  0  0  0
  7  8  1  0  0  0
  8  9  1  0  0  0
  8 15  1  0  0  0
  9 10  1  0  0  0
 10 11  2  0  0  0
 10 14  1  0  0  0
 11 12  1  0  0  0
 12 13  2  0  0  0
 13 14  1  0  0  0
 15 16  2  0  0  0
 15 17  1  0  0  0
 17 18  1  0  0  0
 18 19  2  0  0  0
 18 24  1  0  0  0
 19 20  1  0  0  0
 19 21  1  0  0  0
 21 22  2  0  0  0
 22 23  1  0  0  0
 23 24  2  0  0  0
 24 25  1  0  0  0
M  END
>  <CHROM.0>
-58.91965298,-166.59430849,-43.46340177,145.92650833,168.74919123,176.56960260
-37.88246722,-161.22303235

>  <CHROM.1>
-54.42915515,133.50886146,108.46596580,132.25401021,-69.41936034,-42.19502897
-22.49787351,21.02324385,-11.75815089,-1.27117098,0.62498152,0.41537678

>  <Name>
F6436-1869

>  <RI>
4.00695e+07

>  <Rbt.Current_Directory>
/home/adria/Escritorio/rDock_CMTR_LC/2pxcA_model/inputs_sah

>  <Rbt.Executable>
rbdock ($Id: //depot/dev/client3/rdock/2013.1/src/exe/rbdock.cxx#4 $)

>  <Rbt.Library>
libRbt.so (2013.1, Build901 2013/11/27)

>  <Rbt.Parameter_File>
/home/adria/Escritorio/rDock_2013.1_src/data/scripts/dock.prm

>  <Rbt.Receptor>
sah_rdock.prm

>  <SCORE>
-273.382

>  <SCORE.INTER>
-5.37953

>  <SCORE.INTER.CONST>
1

>  <SCORE.INTER.POLAR>
0

>  <SCORE.INTER.REPUL>
0

>  <SCORE.INTER.ROT>
6

>  <SCORE.INTER.VDW>
-16.7795

>  <SCORE.INTER.norm>
-0.215181

>  <SCORE.INTRA>
-270.01

>  <SCORE.INTRA.DIHEDRAL>
0.0295828

>  <SCORE.INTRA.DIHEDRAL.0>
6.52878

>  <SCORE.INTRA.POLAR>
0

>  <SCORE.INTRA.POLAR.0>
0

>  <SCORE.INTRA.REPUL>
0

>  <SCORE.INTRA.REPUL.0>
0

>  <SCORE.INTRA.VDW>
-270.025

>  <SCORE.INTRA.VDW.0>
264.492

>  <SCORE.INTRA.norm>
-10.8004

>  <SCORE.RESTR>
0

>  <SCORE.RESTR.CAVITY>
0

>  <SCORE.RESTR.norm>
0

>  <SCORE.SYSTEM>
2.00778

>  <SCORE.SYSTEM.CONST>
0

>  <SCORE.SYSTEM.DIHEDRAL>
8.06361

>  <SCORE.SYSTEM.POLAR>
-3.5815

>  <SCORE.SYSTEM.VDW>
10.1531

>  <SCORE.SYSTEM.norm>
0.0803114

>  <SCORE.heavy>
25

>  <SCORE.norm>
-10.9353

$$$$
F6436-1869
  rDOCK(R)          3D
libRbt.so/2013.1/901 2013/11/27
 25 27  0  0  0  0  0  0  0  0999 V2000
  -24.6349   22.6902   -8.4086 C   0  0  0  0  0  0
  -25.4448   22.9642   -9.5881 N   0  0  0  0  0  0
  -27.0285   23.5853   -8.9872 C   0  0  0  0  0  0
  -28.0189   24.4125  -10.5016 C   0  0  0  0  0  0
  -26.7320   24.0955  -12.0258 C   0  0  0  0  0  0
  -25.1984   23.4259  -11.2871 C   0  0  0  0  0  0
  -23.9255   24.2820  -11.4478 C   0  0  0  0  0  0
  -22.8780   23.7546  -12.4173 N   0  0  0  0  0  0
  -21.9301   24.8625  -12.6967 C   0  0  0  0  0  0
  -20.9853   25.0517  -11.5265 C   0  0  0  0  0  0
  -20.8206   26.1585  -10.7140 C   0  0  0  0  0  0
  -19.8130   25.9706   -9.7208 C   0  0  0  0  0  0
  -19.2449   24.7192   -9.7916 C   0  0  0  0  0  0
  -19.9387   23.7747  -11.0362 S   0  0  0  0  0  0
  -22.4757   22.4699  -12.9147 C   0  0  0  0  0  0
  -21.5034   22.4929  -13.7104 O   0  0  0  0  0  0
  -22.9562   20.9035  -12.6182 C   0  0  0  0  0  0
  -22.0525   19.6736  -12.8014 C   0  0  0  0  0  0
  -20.3724   19.3033  -12.6682 C   0  0  0  0  0  0
  -19.4276   20.7770  -12.3271 Cl  0  0  0  0  0  0
  -19.4701   18.1495  -13.7235 C   0  0  0  0  0  0
  -20.1730   17.3558  -15.1487 C   0  0  0  0  0  0
  -21.8818   17.7229  -15.4681 C   0  0  0  0  0  0
  -22.8305   18.8895  -13.9967 C   0  0  0  0  0  0
  -24.0615   18.6796  -13.3690 F   0  0  0  0  0  0
  1  2  1  0  0  0
  2  3  1  0  0  0
  2  6  1  0  0  0
  3  4  2  0  0  0
  4  5  1  0  0  0
  5  6  2  0  0  0
  6  7  1  0  0  0
  7  8  1  0  0  0
  8  9  1  0  0  0
  8 15  1  0  0  0
  9 10  1  0  0  0
 10 11  2  0  0  0
 10 14  1  0  0  0
 11 12  1  0  0  0
 12 13  2  0  0  0
 13 14  1  0  0  0
 15 16  2  0  0  0
 15 17  1  0  0  0
 17 18  1  0  0  0
 18 19  2  0  0  0
 18 24  1  0  0  0
 19 20  1  0  0  0
 19 21  1  0  0  0
 21 22  2  0  0  0
 22 23  1  0  0  0
 23 24  2  0  0  0
 24 25  1  0  0  0
M  END
>  <CHROM.0>
-175.58239252,68.25715670,-164.12991106,-67.71615392,30.33442148,-59.49220306
80.63900717,-159.79063782

>  <CHROM.1>
122.98796644,165.39229393,76.41854365,-118.24052473,-153.55722085,31.52682134
-22.27598240,22.21122671,-11.93691655,2.07408829,0.11044289,0.50717393

>  <Name>
F6436-1869

>  <RI>
4.00695e+07

>  <Rbt.Current_Directory>
/home/adria/Escritorio/rDock_CMTR_LC/2pxcA_model/inputs_sah

>  <Rbt.Executable>
rbdock ($Id: //depot/dev/client3/rdock/2013.1/src/exe/rbdock.cxx#4 $)

>  <Rbt.Library>
libRbt.so (2013.1, Build901 2013/11/27)

>  <Rbt.Parameter_File>
/home/adria/Escritorio/rDock_2013.1_src/data/scripts/dock.prm

>  <Rbt.Receptor>
sah_rdock.prm

>  <SCORE>
-273.669

>  <SCORE.INTER>
-10.6833

>  <SCORE.INTER.CONST>
1

>  <SCORE.INTER.POLAR>
0

>  <SCORE.INTER.REPUL>
0.0133813

>  <SCORE.INTER.ROT>
6

>  <SCORE.INTER.VDW>
-22.1502

>  <SCORE.INTER.norm>
-0.427332

>  <SCORE.INTRA>
-268.764

>  <SCORE.INTRA.DIHEDRAL>
-1.47241

>  <SCORE.INTRA.DIHEDRAL.0>
6.52878

>  <SCORE.INTRA.POLAR>
0

>  <SCORE.INTRA.POLAR.0>
0

>  <SCORE.INTRA.REPUL>
0

>  <SCORE.INTRA.REPUL.0>
0

>  <SCORE.INTRA.VDW>
-268.028

>  <SCORE.INTRA.VDW.0>
264.492

>  <SCORE.INTRA.norm>
-10.7505

>  <SCORE.RESTR>
0.00570463

>  <SCORE.RESTR.CAVITY>
0.00570463

>  <SCORE.RESTR.norm>
0.000228185

>  <SCORE.SYSTEM>
5.77199

>  <SCORE.SYSTEM.CONST>
0

>  <SCORE.SYSTEM.DIHEDRAL>
6.36678

>  <SCORE.SYSTEM.POLAR>
-3.28164

>  <SCORE.SYSTEM.VDW>
13.7462

>  <SCORE.SYSTEM.norm>
0.23088

>  <SCORE.heavy>
25

>  <SCORE.norm>
-10.9468

$$$$
F6436-1869
  rDOCK(R)          3D
libRbt.so/2013.1/901 2013/11/27
 25 27  0  0  0  0  0  0  0  0999 V2000
  -23.2431   16.7566  -13.0841 C   0  0  0  0  0  0
  -22.6254   17.2279  -14.3165 N   0  0  0  0  0  0
  -23.8856   18.1811  -15.1873 C   0  0  0  0  0  0
  -23.0177   19.2379  -16.6325 C   0  0  0  0  0  0
  -21.0917   18.6645  -16.4291 C   0  0  0  0  0  0
  -21.0036   17.6518  -14.9084 C   0  0  0  0  0  0
  -20.1243   18.1997  -13.7657 C   0  0  0  0  0  0
  -19.5180   19.5779  -13.9850 N   0  0  0  0  0  0
  -19.5941   20.3096  -12.6955 C   0  0  0  0  0  0
  -20.8145   21.2084  -12.6740 C   0  0  0  0  0  0
  -22.0516   20.9789  -12.1002 C   0  0  0  0  0  0
  -22.9648   22.0566  -12.3048 C   0  0  0  0  0  0
  -22.3959   23.0876  -13.0169 C   0  0  0  0  0  0
  -20.7661   22.7616  -13.4168 S   0  0  0  0  0  0
  -18.7343   20.2185  -15.0025 C   0  0  0  0  0  0
  -18.4126   21.4070  -14.7509 O   0  0  0  0  0  0
  -18.0653   19.7205  -16.4436 C   0  0  0  0  0  0
  -16.8828   18.7448  -16.5553 C   0  0  0  0  0  0
  -15.1686   18.8441  -16.7265 C   0  0  0  0  0  0
  -14.6532   20.5390  -16.9330 Cl  0  0  0  0  0  0
  -14.1464   17.7041  -17.6828 C   0  0  0  0  0  0
  -14.8020   16.4097  -18.7076 C   0  0  0  0  0  0
  -16.5715   16.2504  -18.7062 C   0  0  0  0  0  0
  -17.5759   17.5030  -17.3468 C   0  0  0  0  0  0
  -18.5778   17.1772  -16.4283 F   0  0  0  0  0  0
  1  2  1  0  0  0
  2  3  1  0  0  0
  2  6  1  0  0  0
  3  4  2  0  0  0
  4  5  1  0  0  0
  5  6  2  0  0  0
  6  7  1  0  0  0
  7  8  1  0  0  0
  8  9  1  0  0  0
  8 15  1  0  0  0
  9 10  1  0  0  0
 10 11  2  0  0  0
 10 14  1  0  0  0
 11 12  1  0  0  0
 12 13  2  0  0  0
 13 14  1  0  0  0
 15 16  2  0  0  0
 15 17  1  0  0  0
 17 18  1  0  0  0
 18 19  2  0  0  0
 18 24  1  0  0  0
 19 20  1  0  0  0
 19 21  1  0  0  0
 21 22  2  0  0  0
 22 23  1  0  0  0
 23 24  2  0  0  0
 24 25  1  0  0  0
M  END
>  <CHROM.0>
-176.59684109,67.35116721,-45.58252988,64.27005553,-30.38724344,-176.10997894
-155.30902030,-160.73791755

>  <CHROM.1>
-124.06875315,140.11028861,-97.07214160,98.44812265,-69.73946567,-95.61615978
-19.26871761,19.44666606,-15.19269010,2.65295531,0.37933951,0.47703164

>  <Name>
F6436-1869

>  <RI>
4.00695e+07

>  <Rbt.Current_Directory>
/home/adria/Escritorio/rDock_CMTR_LC/2pxcA_model/inputs_sah

>  <Rbt.Executable>
rbdock ($Id: //depot/dev/client3/rdock/2013.1/src/exe/rbdock.cxx#4 $)

>  <Rbt.Library>
libRbt.so (2013.1, Build901 2013/11/27)

>  <Rbt.Parameter_File>
/home/adria/Escritorio/rDock_2013.1_src/data/scripts/dock.prm

>  <Rbt.Receptor>
sah_rdock.prm

>  <SCORE>
-288.302

>  <SCORE.INTER>
-12.8825

>  <SCORE.INTER.CONST>
1

>  <SCORE.INTER.POLAR>
0

>  <SCORE.INTER.REPUL>
0

>  <SCORE.INTER.ROT>
6

>  <SCORE.INTER.VDW>
-24.2825

>  <SCORE.INTER.norm>
-0.5153

>  <SCORE.INTRA>
-268.623

>  <SCORE.INTRA.DIHEDRAL>
-0.547055

>  <SCORE.INTRA.DIHEDRAL.0>
6.52878

>  <SCORE.INTRA.POLAR>
0

>  <SCORE.INTRA.POLAR.0>
0

>  <SCORE.INTRA.REPUL>
0

>  <SCORE.INTRA.REPUL.0>
0

>  <SCORE.INTRA.VDW>
-268.35

>  <SCORE.INTRA.VDW.0>
264.492

>  <SCORE.INTRA.norm>
-10.7449

>  <SCORE.RESTR>
0

>  <SCORE.RESTR.CAVITY>
0

>  <SCORE.RESTR.norm>
0

>  <SCORE.SYSTEM>
-6.79639

>  <SCORE.SYSTEM.CONST>
0

>  <SCORE.SYSTEM.DIHEDRAL>
6.29194

>  <SCORE.SYSTEM.POLAR>
-3.74072

>  <SCORE.SYSTEM.VDW>
2.77608

>  <SCORE.SYSTEM.norm>
-0.271855

>  <SCORE.heavy>
25

>  <SCORE.norm>
-11.5321

$$$$
F6436-1869
  rDOCK(R)          3D
libRbt.so/2013.1/901 2013/11/27
 25 27  0  0  0  0  0  0  0  0999 V2000
  -23.1348   26.6196  -12.3852 C   0  0  0  0  0  0
  -22.4566   25.3870  -12.7634 N   0  0  0  0  0  0
  -21.1657   25.1160  -11.5325 C   0  0  0  0  0  0
  -20.4975   23.2487  -11.6922 C   0  0  0  0  0  0
  -21.6054   22.5713  -13.2392 C   0  0  0  0  0  0
  -22.8365   23.8719  -13.6121 C   0  0  0  0  0  0
  -24.3193   23.4908  -13.4251 C   0  0  0  0  0  0
  -24.5995   22.3044  -12.5146 N   0  0  0  0  0  0
  -25.4916   22.7774  -11.4264 C   0  0  0  0  0  0
  -24.6962   22.9987  -10.1552 C   0  0  0  0  0  0
  -23.9428   24.0968   -9.7825 C   0  0  0  0  0  0
  -23.3156   23.9318   -8.5112 C   0  0  0  0  0  0
  -23.6187   22.7173   -7.9394 C   0  0  0  0  0  0
  -24.6681   21.7945   -8.9240 S   0  0  0  0  0  0
  -24.4128   20.8825  -12.5733 C   0  0  0  0  0  0
  -24.8348   20.2531  -11.5709 O   0  0  0  0  0  0
  -23.8232   19.8317  -13.7224 C   0  0  0  0  0  0
  -22.4294   19.1860  -13.6681 C   0  0  0  0  0  0
  -21.2019   18.9164  -12.4856 C   0  0  0  0  0  0
  -21.6350   19.6929  -10.9396 Cl  0  0  0  0  0  0
  -19.4240   18.9682  -12.7947 C   0  0  0  0  0  0
  -18.7031   19.4618  -14.3413 C   0  0  0  0  0  0
  -19.8552   19.8661  -15.6320 C   0  0  0  0  0  0
  -21.8754   19.5120  -15.1633 C   0  0  0  0  0  0
  -22.8483   18.8496  -15.9170 F   0  0  0  0  0  0
  1  2  1  0  0  0
  2  3  1  0  0  0
  2  6  1  0  0  0
  3  4  2  0  0  0
  4  5  1  0  0  0
  5  6  2  0  0  0
  6  7  1  0  0  0
  7  8  1  0  0  0
  8  9  1  0  0  0
  8 15  1  0  0  0
  9 10  1  0  0  0
 10 11  2  0  0  0
 10 14  1  0  0  0
 11 12  1  0  0  0
 12 13  2  0  0  0
 13 14  1  0  0  0
 15 16  2  0  0  0
 15 17  1  0  0  0
 17 18  1  0  0  0
 18 19  2  0  0  0
 18 24  1  0  0  0
 19 20  1  0  0  0
 19 21  1  0  0  0
 21 22  2  0  0  0
 22 23  1  0  0  0
 23 24  2  0  0  0
 24 25  1  0  0  0
M  END
>  <CHROM.0>
-62.56711094,67.61807896,-8.21805043,64.29816657,-29.86567673,-55.89214748
-156.32210129,-157.57045461

>  <CHROM.1>
-108.07866332,122.12569088,-102.08836433,82.61015181,103.66287163,17.40584220
-22.76965404,21.71466627,-12.06921534,-2.48095725,-1.00997864,3.06537942

>  <Name>
F6436-1869

>  <RI>
4.00695e+07

>  <Rbt.Current_Directory>
/home/adria/Escritorio/rDock_CMTR_LC/2pxcA_model/inputs_sah

>  <Rbt.Executable>
rbdock ($Id: //depot/dev/client3/rdock/2013.1/src/exe/rbdock.cxx#4 $)

>  <Rbt.Library>
libRbt.so (2013.1, Build901 2013/11/27)

>  <Rbt.Parameter_File>
/home/adria/Escritorio/rDock_2013.1_src/data/scripts/dock.prm

>  <Rbt.Receptor>
sah_rdock.prm

>  <SCORE>
-284.748

>  <SCORE.INTER>
-7.44325

>  <SCORE.INTER.CONST>
1

>  <SCORE.INTER.POLAR>
-0.417269

>  <SCORE.INTER.REPUL>
0

>  <SCORE.INTER.ROT>
6

>  <SCORE.INTER.VDW>
-17.4245

>  <SCORE.INTER.norm>
-0.29773

>  <SCORE.INTRA>
-270.174

>  <SCORE.INTRA.DIHEDRAL>
0.978731

>  <SCORE.INTRA.DIHEDRAL.0>
6.52878

>  <SCORE.INTRA.POLAR>
0

>  <SCORE.INTRA.POLAR.0>
0

>  <SCORE.INTRA.REPUL>
0

>  <SCORE.INTRA.REPUL.0>
0

>  <SCORE.INTRA.VDW>
-270.663

>  <SCORE.INTRA.VDW.0>
264.492

>  <SCORE.INTRA.norm>
-10.807

>  <SCORE.RESTR>
0

>  <SCORE.RESTR.CAVITY>
0

>  <SCORE.RESTR.norm>
0

>  <SCORE.SYSTEM>
-7.13045

>  <SCORE.SYSTEM.CONST>
0

>  <SCORE.SYSTEM.DIHEDRAL>
9.42276

>  <SCORE.SYSTEM.POLAR>
-4.38794

>  <SCORE.SYSTEM.VDW>
3.07715

>  <SCORE.SYSTEM.norm>
-0.285218

>  <SCORE.heavy>
25

>  <SCORE.norm>
-11.3899

$$$$
