F6414-3869
  rDOCK(R)          3D
libRbt.so/2013.1/901 2013/11/27
 29 31  0  0  0  0  0  0  0  0999 V2000
  -19.3629   25.7748  -10.0860 C   0  0  0  0  0  0
  -20.5431   26.5067  -10.2396 O   0  0  0  0  0  0
  -21.4925   25.6718  -10.7223 C   0  0  0  0  0  0
  -21.9170   26.0364  -12.0753 C   0  0  0  0  0  0
  -22.9603   25.0685  -12.7607 C   0  0  0  0  0  0
  -23.7794   23.2803  -12.2305 C   0  0  0  0  0  0
  -24.9686   22.3579  -12.7901 C   0  0  0  0  0  0
  -25.0653   20.9605  -12.2742 C   0  0  0  0  0  0
  -23.7087   19.8262  -12.5795 S   0  0  0  0  0  0
  -23.1252   19.3288  -11.3586 O   0  0  0  0  0  0
  -24.2702   18.8371  -13.4821 O   0  0  0  0  0  0
  -22.5507   20.5958  -13.5621 N   0  0  0  0  0  0
  -21.1469   20.1209  -13.9065 C   0  0  0  0  0  0
  -21.0709   18.7227  -14.5884 C   0  0  0  0  0  0
  -20.9151   17.5216  -13.6491 C   0  0  0  0  0  0
  -22.0974   18.4533  -15.5223 O   0  0  0  0  0  0
  -19.8150   18.7536  -15.3160 C   0  0  0  0  0  0
  -19.4752   17.7789  -16.7023 C   0  0  0  0  0  0
  -17.8797   18.2842  -17.5706 C   0  0  0  0  0  0
  -17.0535   19.9075  -16.6966 C   0  0  0  0  0  0
  -18.3900   20.5437  -14.9019 S   0  0  0  0  0  0
  -15.2256   19.9752  -16.6230 C   0  0  0  0  0  0
  -14.2888   18.6548  -17.3714 C   0  0  0  0  0  0
  -15.0259   17.2670  -18.1796 C   0  0  0  0  0  0
  -16.7659   17.0385  -18.2973 C   0  0  0  0  0  0
  -23.2519   22.8459  -10.6522 C   0  0  0  0  0  0
  -22.0641   24.2674   -9.9067 C   0  0  0  0  0  0
  -23.0672   20.8427  -14.4106 H   0  0  0  0  0  0
  -21.9041   17.6098  -15.9536 H   0  0  0  0  0  0
  1  2  1  0  0  0
  2  3  1  0  0  0
  3  4  2  0  0  0
  3 27  1  0  0  0
  4  5  1  0  0  0
  5  6  2  0  0  0
  6  7  1  0  0  0
  6 26  1  0  0  0
  7  8  1  0  0  0
  8  9  1  0  0  0
  9 10  2  0  0  0
  9 11  2  0  0  0
  9 12  1  0  0  0
 12 13  1  0  0  0
 12 28  1  0  0  0
 13 14  1  0  0  0
 14 15  1  0  0  0
 14 16  1  0  0  0
 14 17  1  0  0  0
 16 29  1  0  0  0
 17 18  2  0  0  0
 17 21  1  0  0  0
 18 19  1  0  0  0
 19 20  2  0  0  0
 19 25  1  0  0  0
 20 21  1  0  0  0
 20 22  1  0  0  0
 22 23  2  0  0  0
 23 24  1  0  0  0
 24 25  2  0  0  0
 26 27  2  0  0  0
M  END
>  <CHROM.0>
-177.73358018,-73.79879688,109.84696973,-60.88840025,168.16825516,-177.12764164
-38.52255551,-161.34602076

>  <CHROM.1>
-114.13710580,167.24989050,-62.07944104,120.06478053,169.71538594,57.60327474
-90.91387819,173.89360008,-155.47074303,-20.80193808,20.83408809,-13.77730086
-2.25657235,-0.36837811,-2.62091101

>  <Name>
F6414-3869

>  <RI>
3.51829e+07

>  <Rbt.Current_Directory>
/home/adria/Escritorio/rDock_CMTR_LC/2pxcA_model/inputs_sah

>  <Rbt.Executable>
rbdock ($Id: //depot/dev/client3/rdock/2013.1/src/exe/rbdock.cxx#4 $)

>  <Rbt.Library>
libRbt.so (2013.1, Build901 2013/11/27)

>  <Rbt.Parameter_File>
/home/adria/Escritorio/rDock_2013.1_src/data/scripts/dock.prm

>  <Rbt.Receptor>
sah_rdock.prm

>  <SCORE>
-398.485

>  <SCORE.INTER>
-16.1129

>  <SCORE.INTER.CONST>
1

>  <SCORE.INTER.POLAR>
-1.48635

>  <SCORE.INTER.REPUL>
0

>  <SCORE.INTER.ROT>
8

>  <SCORE.INTER.VDW>
-24.4593

>  <SCORE.INTER.norm>
-0.596773

>  <SCORE.INTRA>
-380.488

>  <SCORE.INTRA.DIHEDRAL>
-0.682264

>  <SCORE.INTRA.DIHEDRAL.0>
12.4267

>  <SCORE.INTRA.POLAR>
0

>  <SCORE.INTRA.POLAR.0>
0

>  <SCORE.INTRA.REPUL>
0

>  <SCORE.INTRA.REPUL.0>
0

>  <SCORE.INTRA.VDW>
-380.147

>  <SCORE.INTRA.VDW.0>
379.441

>  <SCORE.INTRA.norm>
-14.0922

>  <SCORE.RESTR>
0

>  <SCORE.RESTR.CAVITY>
0

>  <SCORE.RESTR.norm>
0

>  <SCORE.SYSTEM>
-1.88409

>  <SCORE.SYSTEM.CONST>
0

>  <SCORE.SYSTEM.DIHEDRAL>
6.48418

>  <SCORE.SYSTEM.POLAR>
-4.46464

>  <SCORE.SYSTEM.REPUL>
0.0399307

>  <SCORE.SYSTEM.VDW>
9.85393

>  <SCORE.SYSTEM.norm>
-0.0697812

>  <SCORE.heavy>
27

>  <SCORE.norm>
-14.7587

$$$$
F6414-3869
  rDOCK(R)          3D
libRbt.so/2013.1/901 2013/11/27
 29 31  0  0  0  0  0  0  0  0999 V2000
  -13.9203   20.6375  -17.2592 C   0  0  0  0  0  0
  -14.1649   19.4007  -16.6569 O   0  0  0  0  0  0
  -15.4972   19.1684  -16.7059 C   0  0  0  0  0  0
  -15.8065   17.7794  -17.0505 C   0  0  0  0  0  0
  -17.3364   17.3867  -17.0465 C   0  0  0  0  0  0
  -19.0397   18.3694  -16.5144 C   0  0  0  0  0  0
  -20.6138   18.0910  -16.6658 C   0  0  0  0  0  0
  -21.3092   17.4033  -15.5381 C   0  0  0  0  0  0
  -21.2766   18.1561  -13.9094 S   0  0  0  0  0  0
  -20.2662   17.5781  -13.0589 O   0  0  0  0  0  0
  -21.1642   19.5785  -14.1789 O   0  0  0  0  0  0
  -22.8259   18.0417  -13.2129 N   0  0  0  0  0  0
  -23.5341   19.0558  -12.3268 C   0  0  0  0  0  0
  -22.9544   19.1951  -10.8880 C   0  0  0  0  0  0
  -23.9436   18.9762   -9.7379 C   0  0  0  0  0  0
  -21.7790   18.4502  -10.6393 O   0  0  0  0  0  0
  -22.6112   20.6017  -10.7814 C   0  0  0  0  0  0
  -21.1142   21.2765  -11.3208 C   0  0  0  0  0  0
  -21.1213   23.1619  -11.3055 C   0  0  0  0  0  0
  -22.9278   23.8824  -10.7590 C   0  0  0  0  0  0
  -24.3412   22.0866  -10.3239 S   0  0  0  0  0  0
  -22.9455   25.4052   -9.7431 C   0  0  0  0  0  0
  -21.3932   26.1914   -9.3512 C   0  0  0  0  0  0
  -19.8233   25.5781   -9.8818 C   0  0  0  0  0  0
  -19.6383   24.1069  -10.8278 C   0  0  0  0  0  0
  -18.6628   19.9911  -16.0829 C   0  0  0  0  0  0
  -16.7058   20.3246  -16.2976 C   0  0  0  0  0  0
  -23.4288   17.7568  -13.9894 H   0  0  0  0  0  0
  -21.1876   18.5506  -11.3975 H   0  0  0  0  0  0
  1  2  1  0  0  0
  2  3  1  0  0  0
  3  4  2  0  0  0
  3 27  1  0  0  0
  4  5  1  0  0  0
  5  6  2  0  0  0
  6  7  1  0  0  0
  6 26  1  0  0  0
  7  8  1  0  0  0
  8  9  1  0  0  0
  9 10  2  0  0  0
  9 11  2  0  0  0
  9 12  1  0  0  0
 12 13  1  0  0  0
 12 28  1  0  0  0
 13 14  1  0  0  0
 14 15  1  0  0  0
 14 16  1  0  0  0
 14 17  1  0  0  0
 16 29  1  0  0  0
 17 18  2  0  0  0
 17 21  1  0  0  0
 18 19  1  0  0  0
 19 20  2  0  0  0
 19 25  1  0  0  0
 20 21  1  0  0  0
 20 22  1  0  0  0
 22 23  2  0  0  0
 23 24  1  0  0  0
 24 25  2  0  0  0
 26 27  2  0  0  0
M  END
>  <CHROM.0>
-56.30564816,70.21887586,-129.00958976,64.23856218,-30.92765171,63.27811398
124.62496517,-162.68950002

>  <CHROM.1>
138.40371275,93.09283009,58.79673842,-98.52693343,-143.53390504,-71.28300575
-124.06509586,43.62669626,-85.23404666,-20.47107916,20.25140865,-13.18276858
-0.73782426,0.53589798,0.52225701

>  <Name>
F6414-3869

>  <RI>
3.51829e+07

>  <Rbt.Current_Directory>
/home/adria/Escritorio/rDock_CMTR_LC/2pxcA_model/inputs_sah

>  <Rbt.Executable>
rbdock ($Id: //depot/dev/client3/rdock/2013.1/src/exe/rbdock.cxx#4 $)

>  <Rbt.Library>
libRbt.so (2013.1, Build901 2013/11/27)

>  <Rbt.Parameter_File>
/home/adria/Escritorio/rDock_2013.1_src/data/scripts/dock.prm

>  <Rbt.Receptor>
sah_rdock.prm

>  <SCORE>
-399.067

>  <SCORE.INTER>
-14.0856

>  <SCORE.INTER.CONST>
1

>  <SCORE.INTER.POLAR>
-1.46052

>  <SCORE.INTER.REPUL>
0.279233

>  <SCORE.INTER.ROT>
8

>  <SCORE.INTER.VDW>
-23.916

>  <SCORE.INTER.norm>
-0.521689

>  <SCORE.INTRA>
-381.123

>  <SCORE.INTRA.DIHEDRAL>
1.22823

>  <SCORE.INTRA.DIHEDRAL.0>
12.4267

>  <SCORE.INTRA.POLAR>
-0.19496

>  <SCORE.INTRA.POLAR.0>
0

>  <SCORE.INTRA.REPUL>
0

>  <SCORE.INTRA.REPUL.0>
0

>  <SCORE.INTRA.VDW>
-381.074

>  <SCORE.INTRA.VDW.0>
379.441

>  <SCORE.INTRA.norm>
-14.1157

>  <SCORE.RESTR>
0

>  <SCORE.RESTR.CAVITY>
0

>  <SCORE.RESTR.norm>
0

>  <SCORE.SYSTEM>
-3.8582

>  <SCORE.SYSTEM.CONST>
0

>  <SCORE.SYSTEM.DIHEDRAL>
11.4873

>  <SCORE.SYSTEM.POLAR>
-3.94991

>  <SCORE.SYSTEM.VDW>
3.82787

>  <SCORE.SYSTEM.norm>
-0.142896

>  <SCORE.heavy>
27

>  <SCORE.norm>
-14.7803

$$$$
F6414-3869
  rDOCK(R)          3D
libRbt.so/2013.1/901 2013/11/27
 29 31  0  0  0  0  0  0  0  0999 V2000
  -17.4747   18.5034  -16.2308 C   0  0  0  0  0  0
  -17.4854   18.3653  -14.8406 O   0  0  0  0  0  0
  -18.6126   18.9494  -14.3716 C   0  0  0  0  0  0
  -18.3267   20.0156  -13.4096 C   0  0  0  0  0  0
  -19.5756   20.8184  -12.8706 C   0  0  0  0  0  0
  -21.5604   20.8061  -13.3291 C   0  0  0  0  0  0
  -22.8840   21.4542  -12.6917 C   0  0  0  0  0  0
  -22.7433   22.7540  -11.9713 C   0  0  0  0  0  0
  -23.6701   24.1754  -12.5552 S   0  0  0  0  0  0
  -22.9015   24.9982  -13.4556 O   0  0  0  0  0  0
  -24.8975   23.6059  -13.0819 O   0  0  0  0  0  0
  -24.2299   25.0632  -11.2146 N   0  0  0  0  0  0
  -24.4978   24.5628   -9.8028 C   0  0  0  0  0  0
  -25.9111   23.9490   -9.5763 C   0  0  0  0  0  0
  -26.2230   23.4819   -8.1502 C   0  0  0  0  0  0
  -26.9884   24.7278  -10.0571 O   0  0  0  0  0  0
  -25.8866   22.7162  -10.3427 C   0  0  0  0  0  0
  -25.0640   21.2811   -9.8416 C   0  0  0  0  0  0
  -25.4847   19.7910  -10.9174 C   0  0  0  0  0  0
  -26.8742   20.2605  -12.3068 C   0  0  0  0  0  0
  -27.4287   22.5074  -12.0704 S   0  0  0  0  0  0
  -26.7162   19.4627  -13.9468 C   0  0  0  0  0  0
  -25.4012   18.2853  -14.2033 C   0  0  0  0  0  0
  -24.2248   17.8449  -12.9606 C   0  0  0  0  0  0
  -24.2197   18.5531  -11.3507 C   0  0  0  0  0  0
  -21.8818   19.5705  -14.4815 C   0  0  0  0  0  0
  -20.2033   18.5805  -14.9170 C   0  0  0  0  0  0
  -23.6311   25.8931  -11.1965 H   0  0  0  0  0  0
  -26.8487   24.8935  -10.9994 H   0  0  0  0  0  0
  1  2  1  0  0  0
  2  3  1  0  0  0
  3  4  2  0  0  0
  3 27  1  0  0  0
  4  5  1  0  0  0
  5  6  2  0  0  0
  6  7  1  0  0  0
  6 26  1  0  0  0
  7  8  1  0  0  0
  8  9  1  0  0  0
  9 10  2  0  0  0
  9 11  2  0  0  0
  9 12  1  0  0  0
 12 13  1  0  0  0
 12 28  1  0  0  0
 13 14  1  0  0  0
 14 15  1  0  0  0
 14 16  1  0  0  0
 14 17  1  0  0  0
 16 29  1  0  0  0
 17 18  2  0  0  0
 17 21  1  0  0  0
 18 19  1  0  0  0
 19 20  2  0  0  0
 19 25  1  0  0  0
 20 21  1  0  0  0
 20 22  1  0  0  0
 22 23  2  0  0  0
 23 24  1  0  0  0
 24 25  2  0  0  0
 26 27  2  0  0  0
M  END
>  <CHROM.0>
38.08350379,-168.54790085,-165.60550983,-61.51526854,27.88175624,61.49041505
-35.80401332,-161.20552776

>  <CHROM.1>
-121.76016890,30.36204639,120.32414853,-94.38671085,-25.20642403,-85.62416726
-177.95887691,56.45415617,75.71588912,-23.56398225,21.58082091,-12.40064628
-0.64612622,0.30048502,0.34056746

>  <Name>
F6414-3869

>  <RI>
3.51829e+07

>  <Rbt.Current_Directory>
/home/adria/Escritorio/rDock_CMTR_LC/2pxcA_model/inputs_sah

>  <Rbt.Executable>
rbdock ($Id: //depot/dev/client3/rdock/2013.1/src/exe/rbdock.cxx#4 $)

>  <Rbt.Library>
libRbt.so (2013.1, Build901 2013/11/27)

>  <Rbt.Parameter_File>
/home/adria/Escritorio/rDock_2013.1_src/data/scripts/dock.prm

>  <Rbt.Receptor>
sah_rdock.prm

>  <SCORE>
-378.465

>  <SCORE.INTER>
-7.93394

>  <SCORE.INTER.CONST>
1

>  <SCORE.INTER.POLAR>
-1.70259

>  <SCORE.INTER.REPUL>
0

>  <SCORE.INTER.ROT>
8

>  <SCORE.INTER.VDW>
-15.5451

>  <SCORE.INTER.norm>
-0.293849

>  <SCORE.INTRA>
-380.767

>  <SCORE.INTRA.DIHEDRAL>
3.73893

>  <SCORE.INTRA.DIHEDRAL.0>
12.4267

>  <SCORE.INTRA.POLAR>
0

>  <SCORE.INTRA.POLAR.0>
0

>  <SCORE.INTRA.REPUL>
0

>  <SCORE.INTRA.REPUL.0>
0

>  <SCORE.INTRA.VDW>
-382.637

>  <SCORE.INTRA.VDW.0>
379.441

>  <SCORE.INTRA.norm>
-14.1025

>  <SCORE.RESTR>
0

>  <SCORE.RESTR.CAVITY>
0

>  <SCORE.RESTR.norm>
0

>  <SCORE.SYSTEM>
10.2365

>  <SCORE.SYSTEM.CONST>
0

>  <SCORE.SYSTEM.DIHEDRAL>
9.01194

>  <SCORE.SYSTEM.POLAR>
-3.3675

>  <SCORE.SYSTEM.REPUL>
0.129138

>  <SCORE.SYSTEM.VDW>
16.5344

>  <SCORE.SYSTEM.norm>
0.379131

>  <SCORE.heavy>
27

>  <SCORE.norm>
-14.0172

$$$$
F6414-3869
  rDOCK(R)          3D
libRbt.so/2013.1/901 2013/11/27
 29 31  0  0  0  0  0  0  0  0999 V2000
  -16.4850   11.4336  -19.5236 C   0  0  0  0  0  0
  -15.4609   12.1812  -18.9367 O   0  0  0  0  0  0
  -15.9288   13.4323  -18.7194 C   0  0  0  0  0  0
  -14.9928   14.4622  -19.1743 C   0  0  0  0  0  0
  -15.4872   15.9567  -19.0443 C   0  0  0  0  0  0
  -17.2538   16.8116  -18.4981 C   0  0  0  0  0  0
  -17.7475   18.3039  -18.1703 C   0  0  0  0  0  0
  -18.2928   18.5713  -16.8067 C   0  0  0  0  0  0
  -17.2149   18.3718  -15.3858 S   0  0  0  0  0  0
  -16.3824   17.1995  -15.4901 O   0  0  0  0  0  0
  -16.5307   19.6481  -15.2784 O   0  0  0  0  0  0
  -18.1600   18.3483  -13.9698 N   0  0  0  0  0  0
  -19.0048   19.4712  -13.3863 C   0  0  0  0  0  0
  -20.3761   19.0280  -12.7956 C   0  0  0  0  0  0
  -21.4131   18.5215  -13.8043 C   0  0  0  0  0  0
  -20.2993   18.1229  -11.7126 O   0  0  0  0  0  0
  -20.9586   20.2601  -12.2952 C   0  0  0  0  0  0
  -21.0290   21.7334  -13.1962 C   0  0  0  0  0  0
  -22.1096   23.0383  -12.3690 C   0  0  0  0  0  0
  -22.9810   22.3139  -10.6965 C   0  0  0  0  0  0
  -22.2962   20.1105  -10.3991 S   0  0  0  0  0  0
  -23.1799   23.4709   -9.2919 C   0  0  0  0  0  0
  -22.6588   25.1643   -9.4968 C   0  0  0  0  0  0
  -21.9468   25.7966  -10.9852 C   0  0  0  0  0  0
  -21.6539   24.8022  -12.4061 C   0  0  0  0  0  0
  -18.3567   15.5921  -17.9936 C   0  0  0  0  0  0
  -17.4906   13.7956  -18.0925 C   0  0  0  0  0  0
  -18.7079   17.4874  -14.0492 H   0  0  0  0  0  0
  -21.1939   17.9682  -11.3798 H   0  0  0  0  0  0
  1  2  1  0  0  0
  2  3  1  0  0  0
  3  4  2  0  0  0
  3 27  1  0  0  0
  4  5  1  0  0  0
  5  6  2  0  0  0
  6  7  1  0  0  0
  6 26  1  0  0  0
  7  8  1  0  0  0
  8  9  1  0  0  0
  9 10  2  0  0  0
  9 11  2  0  0  0
  9 12  1  0  0  0
 12 13  1  0  0  0
 12 28  1  0  0  0
 13 14  1  0  0  0
 14 15  1  0  0  0
 14 16  1  0  0  0
 14 17  1  0  0  0
 16 29  1  0  0  0
 17 18  2  0  0  0
 17 21  1  0  0  0
 18 19  1  0  0  0
 19 20  2  0  0  0
 19 25  1  0  0  0
 20 21  1  0  0  0
 20 22  1  0  0  0
 22 23  2  0  0  0
 23 24  1  0  0  0
 24 25  2  0  0  0
 26 27  2  0  0  0
M  END
>  <CHROM.0>
41.58737079,-73.39161052,-43.29479605,-62.53309430,168.38533285,-60.27118737
-155.73930194,-44.37675298

>  <CHROM.1>
-132.75151677,-119.44985042,63.01472362,-41.46756800,-65.08645834,140.04761460
-67.78511098,175.64438459,47.76758899,-19.08687992,18.67929459,-14.60769102
0.78086857,-0.86475378,-3.06081288

>  <Name>
F6414-3869

>  <RI>
3.51829e+07

>  <Rbt.Current_Directory>
/home/adria/Escritorio/rDock_CMTR_LC/2pxcA_model/inputs_sah

>  <Rbt.Executable>
rbdock ($Id: //depot/dev/client3/rdock/2013.1/src/exe/rbdock.cxx#4 $)

>  <Rbt.Library>
libRbt.so (2013.1, Build901 2013/11/27)

>  <Rbt.Parameter_File>
/home/adria/Escritorio/rDock_2013.1_src/data/scripts/dock.prm

>  <Rbt.Receptor>
sah_rdock.prm

>  <SCORE>
-388.75

>  <SCORE.INTER>
-10.5736

>  <SCORE.INTER.CONST>
1

>  <SCORE.INTER.POLAR>
-0.635316

>  <SCORE.INTER.REPUL>
0.0012488

>  <SCORE.INTER.ROT>
8

>  <SCORE.INTER.VDW>
-21.8198

>  <SCORE.INTER.norm>
-0.391615

>  <SCORE.INTRA>
-382.117

>  <SCORE.INTRA.DIHEDRAL>
-5.10342

>  <SCORE.INTRA.DIHEDRAL.0>
12.4267

>  <SCORE.INTRA.POLAR>
0

>  <SCORE.INTRA.POLAR.0>
0

>  <SCORE.INTRA.REPUL>
0

>  <SCORE.INTRA.REPUL.0>
0

>  <SCORE.INTRA.VDW>
-379.565

>  <SCORE.INTRA.VDW.0>
379.441

>  <SCORE.INTRA.norm>
-14.1525

>  <SCORE.RESTR>
0.00132407

>  <SCORE.RESTR.CAVITY>
0.00132407

>  <SCORE.RESTR.norm>
4.90398e-05

>  <SCORE.SYSTEM>
3.93958

>  <SCORE.SYSTEM.CONST>
0

>  <SCORE.SYSTEM.DIHEDRAL>
7.33259

>  <SCORE.SYSTEM.POLAR>
-3.57969

>  <SCORE.SYSTEM.REPUL>
0.183024

>  <SCORE.SYSTEM.VDW>
11.5291

>  <SCORE.SYSTEM.norm>
0.145911

>  <SCORE.heavy>
27

>  <SCORE.norm>
-14.3981

$$$$
F6414-3869
  rDOCK(R)          3D
libRbt.so/2013.1/901 2013/11/27
 29 31  0  0  0  0  0  0  0  0999 V2000
  -27.5197   24.4024  -11.7121 C   0  0  0  0  0  0
  -27.0487   23.5995  -12.7540 O   0  0  0  0  0  0
  -26.0895   22.7863  -12.2538 C   0  0  0  0  0  0
  -24.9103   22.7206  -13.1192 C   0  0  0  0  0  0
  -23.6979   21.8649  -12.5779 C   0  0  0  0  0  0
  -23.3265   20.9073  -10.8186 C   0  0  0  0  0  0
  -22.2113   19.8798  -10.2907 C   0  0  0  0  0  0
  -21.7156   18.8430  -11.2433 C   0  0  0  0  0  0
  -22.9076   17.8209  -12.1122 S   0  0  0  0  0  0
  -23.7461   17.0708  -11.2107 O   0  0  0  0  0  0
  -23.5794   18.7447  -13.0087 O   0  0  0  0  0  0
  -22.0805   16.8019  -13.1967 N   0  0  0  0  0  0
  -20.7471   17.0497  -13.8864 C   0  0  0  0  0  0
  -20.7599   18.1722  -14.9660 C   0  0  0  0  0  0
  -21.5953   17.8923  -16.2203 C   0  0  0  0  0  0
  -21.0631   19.4660  -14.4838 O   0  0  0  0  0  0
  -19.3958   18.1991  -15.4622 C   0  0  0  0  0  0
  -18.2737   19.4737  -15.1405 C   0  0  0  0  0  0
  -16.5182   19.0478  -15.6804 C   0  0  0  0  0  0
  -16.4099   17.1616  -16.3959 C   0  0  0  0  0  0
  -18.5317   16.2120  -16.3056 S   0  0  0  0  0  0
  -15.2680   16.8652  -17.7957 C   0  0  0  0  0  0
  -14.2827   18.2237  -18.3997 C   0  0  0  0  0  0
  -14.3496   19.8566  -17.7280 C   0  0  0  0  0  0
  -15.4237   20.3085  -16.4106 C   0  0  0  0  0  0
  -24.7060   21.0152   -9.7971 C   0  0  0  0  0  0
  -26.1735   22.0038  -10.7226 C   0  0  0  0  0  0
  -22.0841   15.8889  -12.7342 H   0  0  0  0  0  0
  -21.9882   19.4783  -14.2031 H   0  0  0  0  0  0
  1  2  1  0  0  0
  2  3  1  0  0  0
  3  4  2  0  0  0
  3 27  1  0  0  0
  4  5  1  0  0  0
  5  6  2  0  0  0
  6  7  1  0  0  0
  6 26  1  0  0  0
  7  8  1  0  0  0
  8  9  1  0  0  0
  9 10  2  0  0  0
  9 11  2  0  0  0
  9 12  1  0  0  0
 12 13  1  0  0  0
 12 28  1  0  0  0
 13 14  1  0  0  0
 14 15  1  0  0  0
 14 16  1  0  0  0
 14 17  1  0  0  0
 16 29  1  0  0  0
 17 18  2  0  0  0
 17 21  1  0  0  0
 18 19  1  0  0  0
 19 20  2  0  0  0
 19 25  1  0  0  0
 20 21  1  0  0  0
 20 22  1  0  0  0
 22 23  2  0  0  0
 23 24  1  0  0  0
 24 25  2  0  0  0
 26 27  2  0  0  0
M  END
>  <CHROM.0>
-59.38315674,-74.96965340,73.64216016,-60.66516876,-30.44142080,61.38917995
82.72114279,-51.09083129

>  <CHROM.1>
-134.88008740,-37.26161254,-51.59094633,-59.17991444,-27.96514829,-68.98093216
-66.57441284,-68.23807303,-108.96862555,-21.28492196,19.26551438,-13.82273672
-2.92859665,-0.59099948,2.88917138

>  <Name>
F6414-3869

>  <RI>
3.51829e+07

>  <Rbt.Current_Directory>
/home/adria/Escritorio/rDock_CMTR_LC/2pxcA_model/inputs_sah

>  <Rbt.Executable>
rbdock ($Id: //depot/dev/client3/rdock/2013.1/src/exe/rbdock.cxx#4 $)

>  <Rbt.Library>
libRbt.so (2013.1, Build901 2013/11/27)

>  <Rbt.Parameter_File>
/home/adria/Escritorio/rDock_2013.1_src/data/scripts/dock.prm

>  <Rbt.Receptor>
sah_rdock.prm

>  <SCORE>
-403.038

>  <SCORE.INTER>
-10.4179

>  <SCORE.INTER.CONST>
1

>  <SCORE.INTER.POLAR>
-0.52795

>  <SCORE.INTER.REPUL>
0.109237

>  <SCORE.INTER.ROT>
8

>  <SCORE.INTER.VDW>
-22.5691

>  <SCORE.INTER.norm>
-0.38585

>  <SCORE.INTRA>
-387.252

>  <SCORE.INTRA.DIHEDRAL>
-7.14292

>  <SCORE.INTRA.DIHEDRAL.0>
12.4267

>  <SCORE.INTRA.POLAR>
-0.568759

>  <SCORE.INTRA.POLAR.0>
0

>  <SCORE.INTRA.REPUL>
0

>  <SCORE.INTRA.REPUL.0>
0

>  <SCORE.INTRA.VDW>
-381.746

>  <SCORE.INTRA.VDW.0>
379.441

>  <SCORE.INTRA.norm>
-14.3427

>  <SCORE.RESTR>
0

>  <SCORE.RESTR.CAVITY>
0

>  <SCORE.RESTR.norm>
0

>  <SCORE.SYSTEM>
-5.36813

>  <SCORE.SYSTEM.CONST>
0

>  <SCORE.SYSTEM.DIHEDRAL>
9.05083

>  <SCORE.SYSTEM.POLAR>
-3.73135

>  <SCORE.SYSTEM.REPUL>
0.0508333

>  <SCORE.SYSTEM.VDW>
2.53886

>  <SCORE.SYSTEM.norm>
-0.19882

>  <SCORE.heavy>
27

>  <SCORE.norm>
-14.9273

$$$$
F6414-3869
  rDOCK(R)          3D
libRbt.so/2013.1/901 2013/11/27
 29 31  0  0  0  0  0  0  0  0999 V2000
  -21.8303   25.4860   -9.2999 C   0  0  0  0  0  0
  -22.3236   25.7531  -10.5795 O   0  0  0  0  0  0
  -22.3684   24.5854  -11.2621 C   0  0  0  0  0  0
  -21.4733   24.5847  -12.4208 C   0  0  0  0  0  0
  -21.3884   23.2323  -13.2324 C   0  0  0  0  0  0
  -22.1606   21.3691  -12.9462 C   0  0  0  0  0  0
  -22.2623   20.0277  -13.8228 C   0  0  0  0  0  0
  -21.5446   18.8169  -13.3256 C   0  0  0  0  0  0
  -19.7537   18.8526  -13.2164 S   0  0  0  0  0  0
  -19.2836   19.7956  -12.2325 O   0  0  0  0  0  0
  -19.3834   17.4631  -13.0148 O   0  0  0  0  0  0
  -19.1090   19.1782  -14.7582 N   0  0  0  0  0  0
  -17.7096   19.6627  -15.1075 C   0  0  0  0  0  0
  -17.4472   19.8852  -16.6264 C   0  0  0  0  0  0
  -18.6670   20.2652  -17.4732 C   0  0  0  0  0  0
  -16.3791   20.7601  -16.9296 O   0  0  0  0  0  0
  -17.0861   18.5677  -17.1181 C   0  0  0  0  0  0
  -18.2311   17.3349  -17.5139 C   0  0  0  0  0  0
  -17.4416   15.8692  -18.3988 C   0  0  0  0  0  0
  -15.4764   16.1915  -18.7385 C   0  0  0  0  0  0
  -14.9075   18.2761  -17.8766 S   0  0  0  0  0  0
  -14.3602   14.7462  -18.6107 C   0  0  0  0  0  0
  -15.0669   13.1465  -18.2607 C   0  0  0  0  0  0
  -16.7955   12.8712  -18.0185 C   0  0  0  0  0  0
  -17.9887   14.1624  -18.0696 C   0  0  0  0  0  0
  -23.1870   21.3724  -11.5661 C   0  0  0  0  0  0
  -23.2740   23.2042  -10.7761 C   0  0  0  0  0  0
  -19.3543   18.3525  -15.3112 H   0  0  0  0  0  0
  -16.5342   21.5999  -16.4763 H   0  0  0  0  0  0
  1  2  1  0  0  0
  2  3  1  0  0  0
  3  4  2  0  0  0
  3 27  1  0  0  0
  4  5  1  0  0  0
  5  6  2  0  0  0
  6  7  1  0  0  0
  6 26  1  0  0  0
  7  8  1  0  0  0
  8  9  1  0  0  0
  9 10  2  0  0  0
  9 11  2  0  0  0
  9 12  1  0  0  0
 12 13  1  0  0  0
 12 28  1  0  0  0
 13 14  1  0  0  0
 14 15  1  0  0  0
 14 16  1  0  0  0
 14 17  1  0  0  0
 16 29  1  0  0  0
 17 18  2  0  0  0
 17 21  1  0  0  0
 18 19  1  0  0  0
 19 20  2  0  0  0
 19 25  1  0  0  0
 20 21  1  0  0  0
 20 22  1  0  0  0
 22 23  2  0  0  0
 23 24  1  0  0  0
 24 25  2  0  0  0
 26 27  2  0  0  0
M  END
>  <CHROM.0>
177.56465697,-168.67961413,-7.57216167,-60.34189350,29.85046670,-58.26242515
-157.41004031,-158.70831496

>  <CHROM.1>
-116.43276642,116.27520242,-64.10933449,65.91514918,162.32999410,-179.07862329
28.73596604,-54.85371979,80.98032169,-19.00216137,19.45767259,-14.84428479
-2.31644721,-0.71797774,-2.96973686

>  <Name>
F6414-3869

>  <RI>
3.51829e+07

>  <Rbt.Current_Directory>
/home/adria/Escritorio/rDock_CMTR_LC/2pxcA_model/inputs_sah

>  <Rbt.Executable>
rbdock ($Id: //depot/dev/client3/rdock/2013.1/src/exe/rbdock.cxx#4 $)

>  <Rbt.Library>
libRbt.so (2013.1, Build901 2013/11/27)

>  <Rbt.Parameter_File>
/home/adria/Escritorio/rDock_2013.1_src/data/scripts/dock.prm

>  <Rbt.Receptor>
sah_rdock.prm

>  <SCORE>
-395.298

>  <SCORE.INTER>
-19.4631

>  <SCORE.INTER.CONST>
1

>  <SCORE.INTER.POLAR>
-2.54146

>  <SCORE.INTER.REPUL>
0.0503126

>  <SCORE.INTER.ROT>
8

>  <SCORE.INTER.VDW>
-24.4737

>  <SCORE.INTER.norm>
-0.720855

>  <SCORE.INTRA>
-382.053

>  <SCORE.INTRA.DIHEDRAL>
-3.66222

>  <SCORE.INTRA.DIHEDRAL.0>
12.4267

>  <SCORE.INTRA.POLAR>
0

>  <SCORE.INTRA.POLAR.0>
0

>  <SCORE.INTRA.REPUL>
0

>  <SCORE.INTRA.REPUL.0>
0

>  <SCORE.INTRA.VDW>
-380.222

>  <SCORE.INTRA.VDW.0>
379.441

>  <SCORE.INTRA.norm>
-14.1501

>  <SCORE.RESTR>
0

>  <SCORE.RESTR.CAVITY>
0

>  <SCORE.RESTR.norm>
0

>  <SCORE.SYSTEM>
6.21817

>  <SCORE.SYSTEM.CONST>
0

>  <SCORE.SYSTEM.DIHEDRAL>
9.4921

>  <SCORE.SYSTEM.POLAR>
-4.04357

>  <SCORE.SYSTEM.VDW>
15.2203

>  <SCORE.SYSTEM.norm>
0.230303

>  <SCORE.heavy>
27

>  <SCORE.norm>
-14.6407

$$$$
F6414-3869
  rDOCK(R)          3D
libRbt.so/2013.1/901 2013/11/27
 29 31  0  0  0  0  0  0  0  0999 V2000
  -14.7806   18.9175  -17.1115 C   0  0  0  0  0  0
  -15.2748   17.7216  -16.5847 O   0  0  0  0  0  0
  -16.5401   17.9439  -16.1593 C   0  0  0  0  0  0
  -17.3900   16.7602  -16.3018 C   0  0  0  0  0  0
  -18.8641   16.8928  -15.7500 C   0  0  0  0  0  0
  -19.8544   18.3424  -14.7168 C   0  0  0  0  0  0
  -21.3826   18.6077  -14.3015 C   0  0  0  0  0  0
  -21.6388   19.4556  -13.1000 C   0  0  0  0  0  0
  -21.4830   18.7215  -11.4699 S   0  0  0  0  0  0
  -20.2773   17.9432  -11.3325 O   0  0  0  0  0  0
  -21.6411   19.8422  -10.5602 O   0  0  0  0  0  0
  -22.8720   17.7925  -11.1434 N   0  0  0  0  0  0
  -24.3144   18.0961  -11.5203 C   0  0  0  0  0  0
  -25.1040   18.9463  -10.4814 C   0  0  0  0  0  0
  -26.5930   19.1596  -10.7762 C   0  0  0  0  0  0
  -24.9489   18.5453   -9.1348 O   0  0  0  0  0  0
  -24.5357   20.2761  -10.6098 C   0  0  0  0  0  0
  -24.4764   21.1645  -12.0912 C   0  0  0  0  0  0
  -23.9507   22.9578  -11.8407 C   0  0  0  0  0  0
  -23.7014   23.3803   -9.8810 C   0  0  0  0  0  0
  -24.1417   21.4582   -8.6466 S   0  0  0  0  0  0
  -22.3477   24.5319   -9.4420 C   0  0  0  0  0  0
  -21.3793   25.2550  -10.7537 C   0  0  0  0  0  0
  -21.6442   24.9165  -12.4676 C   0  0  0  0  0  0
  -22.8768   23.8031  -13.0460 C   0  0  0  0  0  0
  -18.8383   19.7173  -14.5285 C   0  0  0  0  0  0
  -17.0803   19.4027  -15.4216 C   0  0  0  0  0  0
  -22.6138   16.8458  -11.4346 H   0  0  0  0  0  0
  -24.0061   18.5539   -8.9203 H   0  0  0  0  0  0
  1  2  1  0  0  0
  2  3  1  0  0  0
  3  4  2  0  0  0
  3 27  1  0  0  0
  4  5  1  0  0  0
  5  6  2  0  0  0
  6  7  1  0  0  0
  6 26  1  0  0  0
  7  8  1  0  0  0
  8  9  1  0  0  0
  9 10  2  0  0  0
  9 11  2  0  0  0
  9 12  1  0  0  0
 12 13  1  0  0  0
 12 28  1  0  0  0
 13 14  1  0  0  0
 14 15  1  0  0  0
 14 16  1  0  0  0
 14 17  1  0  0  0
 16 29  1  0  0  0
 17 18  2  0  0  0
 17 21  1  0  0  0
 18 19  1  0  0  0
 19 20  2  0  0  0
 19 25  1  0  0  0
 20 21  1  0  0  0
 20 22  1  0  0  0
 22 23  2  0  0  0
 23 24  1  0  0  0
 24 25  2  0  0  0
 26 27  2  0  0  0
M  END
>  <CHROM.0>
42.43027919,-74.37821505,-43.94432959,-59.71845365,-32.35480607,179.32859039
84.95003393,-164.94902109

>  <CHROM.1>
147.65636602,155.23747758,-79.55167724,46.48857536,-37.45355730,-88.53885444
-174.69919421,56.36494727,56.43796650,-21.51207769,19.94192575,-12.31315864
-0.42513867,0.63284179,0.15088350

>  <Name>
F6414-3869

>  <RI>
3.51829e+07

>  <Rbt.Current_Directory>
/home/adria/Escritorio/rDock_CMTR_LC/2pxcA_model/inputs_sah

>  <Rbt.Executable>
rbdock ($Id: //depot/dev/client3/rdock/2013.1/src/exe/rbdock.cxx#4 $)

>  <Rbt.Library>
libRbt.so (2013.1, Build901 2013/11/27)

>  <Rbt.Parameter_File>
/home/adria/Escritorio/rDock_2013.1_src/data/scripts/dock.prm

>  <Rbt.Receptor>
sah_rdock.prm

>  <SCORE>
-396.81

>  <SCORE.INTER>
-10.546

>  <SCORE.INTER.CONST>
1

>  <SCORE.INTER.POLAR>
-1.01503

>  <SCORE.INTER.REPUL>
0.0131577

>  <SCORE.INTER.ROT>
8

>  <SCORE.INTER.VDW>
-20.5607

>  <SCORE.INTER.norm>
-0.390594

>  <SCORE.INTRA>
-383.505

>  <SCORE.INTRA.DIHEDRAL>
-4.1916

>  <SCORE.INTRA.DIHEDRAL.0>
12.4267

>  <SCORE.INTRA.POLAR>
0

>  <SCORE.INTRA.POLAR.0>
0

>  <SCORE.INTRA.REPUL>
0

>  <SCORE.INTRA.REPUL.0>
0

>  <SCORE.INTRA.VDW>
-381.409

>  <SCORE.INTRA.VDW.0>
379.441

>  <SCORE.INTRA.norm>
-14.2039

>  <SCORE.RESTR>
0

>  <SCORE.RESTR.CAVITY>
0

>  <SCORE.RESTR.norm>
0

>  <SCORE.SYSTEM>
-2.75879

>  <SCORE.SYSTEM.CONST>
0

>  <SCORE.SYSTEM.DIHEDRAL>
7.80322

>  <SCORE.SYSTEM.POLAR>
-3.93116

>  <SCORE.SYSTEM.REPUL>
0.155774

>  <SCORE.SYSTEM.VDW>
5.92666

>  <SCORE.SYSTEM.norm>
-0.102178

>  <SCORE.heavy>
27

>  <SCORE.norm>
-14.6967

$$$$
F6414-3869
  rDOCK(R)          3D
libRbt.so/2013.1/901 2013/11/27
 29 31  0  0  0  0  0  0  0  0999 V2000
  -26.9278   24.2219  -11.0402 C   0  0  0  0  0  0
  -26.3905   24.8052  -12.1905 O   0  0  0  0  0  0
  -25.2671   24.1252  -12.5179 C   0  0  0  0  0  0
  -24.1687   25.0164  -12.8961 C   0  0  0  0  0  0
  -22.7862   24.3203  -13.2109 C   0  0  0  0  0  0
  -22.1124   22.4030  -13.0708 C   0  0  0  0  0  0
  -20.7964   21.6169  -13.5489 C   0  0  0  0  0  0
  -20.8282   20.1249  -13.5160 C   0  0  0  0  0  0
  -19.3303   19.2335  -13.0892 S   0  0  0  0  0  0
  -18.5164   19.9523  -12.1410 O   0  0  0  0  0  0
  -19.8027   17.9230  -12.6793 O   0  0  0  0  0  0
  -18.4698   18.8777  -14.5146 N   0  0  0  0  0  0
  -17.2743   19.6158  -15.0985 C   0  0  0  0  0  0
  -17.2431   19.6977  -16.6534 C   0  0  0  0  0  0
  -18.5661   20.0615  -17.3365 C   0  0  0  0  0  0
  -16.2066   20.4935  -17.1924 O   0  0  0  0  0  0
  -17.0063   18.3282  -17.0735 C   0  0  0  0  0  0
  -15.4371   17.6568  -17.3454 C   0  0  0  0  0  0
  -15.4802   15.7874  -17.5869 C   0  0  0  0  0  0
  -17.3515   15.0624  -17.3543 C   0  0  0  0  0  0
  -18.7814   16.8376  -16.8897 S   0  0  0  0  0  0
  -17.8460   13.6691  -18.4338 C   0  0  0  0  0  0
  -16.6458   12.9980  -19.5698 C   0  0  0  0  0  0
  -14.9949   13.6087  -19.7241 C   0  0  0  0  0  0
  -14.3829   14.9658  -18.7874 C   0  0  0  0  0  0
  -23.4020   21.3682  -12.5974 C   0  0  0  0  0  0
  -25.0892   22.4170  -12.3964 C   0  0  0  0  0  0
  -18.2776   17.8746  -14.4469 H   0  0  0  0  0  0
  -16.2019   21.3428  -16.7303 H   0  0  0  0  0  0
  1  2  1  0  0  0
  2  3  1  0  0  0
  3  4  2  0  0  0
  3 27  1  0  0  0
  4  5  1  0  0  0
  5  6  2  0  0  0
  6  7  1  0  0  0
  6 26  1  0  0  0
  7  8  1  0  0  0
  8  9  1  0  0  0
  9 10  2  0  0  0
  9 11  2  0  0  0
  9 12  1  0  0  0
 12 13  1  0  0  0
 12 28  1  0  0  0
 13 14  1  0  0  0
 14 15  1  0  0  0
 14 16  1  0  0  0
 14 17  1  0  0  0
 16 29  1  0  0  0
 17 18  2  0  0  0
 17 21  1  0  0  0
 18 19  1  0  0  0
 19 20  2  0  0  0
 19 25  1  0  0  0
 20 21  1  0  0  0
 20 22  1  0  0  0
 22 23  2  0  0  0
 23 24  1  0  0  0
 24 25  2  0  0  0
 26 27  2  0  0  0
M  END
>  <CHROM.0>
174.17277588,-74.80308665,-164.22371187,61.84650202,167.97197278,51.06265029
-36.37083468,-167.33165587

>  <CHROM.1>
-136.48464019,-166.23158854,-144.58500938,32.87556190,99.45263955,-143.54721872
44.60911757,-48.85592566,-91.35326930,-19.65337297,19.39475189,-15.04335370
2.31597877,0.33096046,0.33872381

>  <Name>
F6414-3869

>  <RI>
3.51829e+07

>  <Rbt.Current_Directory>
/home/adria/Escritorio/rDock_CMTR_LC/2pxcA_model/inputs_sah

>  <Rbt.Executable>
rbdock ($Id: //depot/dev/client3/rdock/2013.1/src/exe/rbdock.cxx#4 $)

>  <Rbt.Library>
libRbt.so (2013.1, Build901 2013/11/27)

>  <Rbt.Parameter_File>
/home/adria/Escritorio/rDock_2013.1_src/data/scripts/dock.prm

>  <Rbt.Receptor>
sah_rdock.prm

>  <SCORE>
-398.225

>  <SCORE.INTER>
-17.0062

>  <SCORE.INTER.CONST>
1

>  <SCORE.INTER.POLAR>
-1.58463

>  <SCORE.INTER.REPUL>
0

>  <SCORE.INTER.ROT>
8

>  <SCORE.INTER.VDW>
-25.0184

>  <SCORE.INTER.norm>
-0.629858

>  <SCORE.INTRA>
-379.298

>  <SCORE.INTRA.DIHEDRAL>
0.775906

>  <SCORE.INTRA.DIHEDRAL.0>
12.4267

>  <SCORE.INTRA.POLAR>
0

>  <SCORE.INTRA.POLAR.0>
0

>  <SCORE.INTRA.REPUL>
0

>  <SCORE.INTRA.REPUL.0>
0

>  <SCORE.INTRA.VDW>
-379.686

>  <SCORE.INTRA.VDW.0>
379.441

>  <SCORE.INTRA.norm>
-14.0481

>  <SCORE.RESTR>
0

>  <SCORE.RESTR.CAVITY>
0

>  <SCORE.RESTR.norm>
0

>  <SCORE.SYSTEM>
-1.92133

>  <SCORE.SYSTEM.CONST>
0

>  <SCORE.SYSTEM.DIHEDRAL>
4.11659

>  <SCORE.SYSTEM.POLAR>
-3.88743

>  <SCORE.SYSTEM.REPUL>
0.0415952

>  <SCORE.SYSTEM.VDW>
9.02967

>  <SCORE.SYSTEM.norm>
-0.0711605

>  <SCORE.heavy>
27

>  <SCORE.norm>
-14.7491

$$$$
F6414-3869
  rDOCK(R)          3D
libRbt.so/2013.1/901 2013/11/27
 29 31  0  0  0  0  0  0  0  0999 V2000
  -15.2138   16.3242  -18.4700 C   0  0  0  0  0  0
  -15.8764   15.6832  -17.4201 O   0  0  0  0  0  0
  -16.6131   16.6094  -16.7637 C   0  0  0  0  0  0
  -17.8579   16.0529  -16.2303 C   0  0  0  0  0  0
  -18.7464   17.0360  -15.3706 C   0  0  0  0  0  0
  -18.4824   18.9365  -14.6866 C   0  0  0  0  0  0
  -19.4152   20.0363  -13.9805 C   0  0  0  0  0  0
  -19.8620   19.7728  -12.5808 C   0  0  0  0  0  0
  -20.9185   18.3586  -12.2580 S   0  0  0  0  0  0
  -20.3706   17.1339  -12.7854 O   0  0  0  0  0  0
  -21.1450   18.4056  -10.8245 O   0  0  0  0  0  0
  -22.4722   18.6719  -12.8797 N   0  0  0  0  0  0
  -23.8150   18.4846  -12.1892 C   0  0  0  0  0  0
  -24.9445   19.4433  -12.6695 C   0  0  0  0  0  0
  -25.1325   19.5579  -14.1864 C   0  0  0  0  0  0
  -26.2032   19.2424  -12.0583 O   0  0  0  0  0  0
  -24.4758   20.7616  -12.2821 C   0  0  0  0  0  0
  -24.9965   22.2317  -13.0270 C   0  0  0  0  0  0
  -24.4231   23.7630  -12.0884 C   0  0  0  0  0  0
  -23.4392   23.2590  -10.3974 C   0  0  0  0  0  0
  -23.3607   20.9387  -10.2493 S   0  0  0  0  0  0
  -22.0263   24.3154   -9.9085 C   0  0  0  0  0  0
  -21.6419   25.7455  -10.9026 C   0  0  0  0  0  0
  -22.5457   26.2036  -12.3502 C   0  0  0  0  0  0
  -23.9009   25.2696  -12.9703 C   0  0  0  0  0  0
  -17.0038   19.5714  -15.2939 C   0  0  0  0  0  0
  -16.1104   18.2302  -16.4731 C   0  0  0  0  0  0
  -22.3978   19.6124  -13.2766 H   0  0  0  0  0  0
  -26.0980   19.3425  -11.1024 H   0  0  0  0  0  0
  1  2  1  0  0  0
  2  3  1  0  0  0
  3  4  2  0  0  0
  3 27  1  0  0  0
  4  5  1  0  0  0
  5  6  2  0  0  0
  6  7  1  0  0  0
  6 26  1  0  0  0
  7  8  1  0  0  0
  8  9  1  0  0  0
  9 10  2  0  0  0
  9 11  2  0  0  0
  9 12  1  0  0  0
 12 13  1  0  0  0
 12 28  1  0  0  0
 13 14  1  0  0  0
 14 15  1  0  0  0
 14 16  1  0  0  0
 14 17  1  0  0  0
 16 29  1  0  0  0
 17 18  2  0  0  0
 17 21  1  0  0  0
 18 19  1  0  0  0
 19 20  2  0  0  0
 19 25  1  0  0  0
 20 21  1  0  0  0
 20 22  1  0  0  0
 22 23  2  0  0  0
 23 24  1  0  0  0
 24 25  2  0  0  0
 26 27  2  0  0  0
M  END
>  <CHROM.0>
179.37348123,-74.81404266,-44.87965674,-48.28415213,167.93238268,-55.81587580
47.75473801,-167.84173377

>  <CHROM.1>
146.53712334,69.32923132,-63.64791420,52.68143887,-131.89730074,151.44051916
48.67885318,58.06555589,156.87787691,-21.22812245,19.86074443,-13.20049496
-0.70077718,0.47059806,0.20895128

>  <Name>
F6414-3869

>  <RI>
3.51829e+07

>  <Rbt.Current_Directory>
/home/adria/Escritorio/rDock_CMTR_LC/2pxcA_model/inputs_sah

>  <Rbt.Executable>
rbdock ($Id: //depot/dev/client3/rdock/2013.1/src/exe/rbdock.cxx#4 $)

>  <Rbt.Library>
libRbt.so (2013.1, Build901 2013/11/27)

>  <Rbt.Parameter_File>
/home/adria/Escritorio/rDock_2013.1_src/data/scripts/dock.prm

>  <Rbt.Receptor>
sah_rdock.prm

>  <SCORE>
-394.663

>  <SCORE.INTER>
-12.9498

>  <SCORE.INTER.CONST>
1

>  <SCORE.INTER.POLAR>
-1.5712

>  <SCORE.INTER.REPUL>
0

>  <SCORE.INTER.ROT>
8

>  <SCORE.INTER.VDW>
-21.0078

>  <SCORE.INTER.norm>
-0.479624

>  <SCORE.INTRA>
-381.859

>  <SCORE.INTRA.DIHEDRAL>
-5.20047

>  <SCORE.INTRA.DIHEDRAL.0>
12.4267

>  <SCORE.INTRA.POLAR>
0

>  <SCORE.INTRA.POLAR.0>
0

>  <SCORE.INTRA.REPUL>
0

>  <SCORE.INTRA.REPUL.0>
0

>  <SCORE.INTRA.VDW>
-379.259

>  <SCORE.INTRA.VDW.0>
379.441

>  <SCORE.INTRA.norm>
-14.1429

>  <SCORE.RESTR>
0

>  <SCORE.RESTR.CAVITY>
0

>  <SCORE.RESTR.norm>
0

>  <SCORE.SYSTEM>
0.146285

>  <SCORE.SYSTEM.CONST>
0

>  <SCORE.SYSTEM.DIHEDRAL>
3.5332

>  <SCORE.SYSTEM.POLAR>
-3.23593

>  <SCORE.SYSTEM.REPUL>
0.0416128

>  <SCORE.SYSTEM.VDW>
9.17377

>  <SCORE.SYSTEM.norm>
0.00541796

>  <SCORE.heavy>
27

>  <SCORE.norm>
-14.6171

$$$$
F6414-3869
  rDOCK(R)          3D
libRbt.so/2013.1/901 2013/11/27
 29 31  0  0  0  0  0  0  0  0999 V2000
  -14.7459   15.3955  -18.5644 C   0  0  0  0  0  0
  -14.8364   15.5141  -17.1753 O   0  0  0  0  0  0
  -15.5185   16.6492  -16.8965 C   0  0  0  0  0  0
  -16.8136   16.3791  -16.2693 C   0  0  0  0  0  0
  -17.6478   17.6446  -15.8249 C   0  0  0  0  0  0
  -17.2610   19.6444  -15.7937 C   0  0  0  0  0  0
  -18.1271   20.9715  -15.5347 C   0  0  0  0  0  0
  -19.5175   20.8037  -15.0182 C   0  0  0  0  0  0
  -19.7621   20.0272  -13.4190 S   0  0  0  0  0  0
  -18.7925   18.9927  -13.1582 O   0  0  0  0  0  0
  -19.7933   21.1396  -12.4862 O   0  0  0  0  0  0
  -21.3553   19.4337  -13.3269 N   0  0  0  0  0  0
  -22.0441   18.7734  -12.1417 C   0  0  0  0  0  0
  -23.4580   19.3320  -11.8038 C   0  0  0  0  0  0
  -24.4235   19.4835  -12.9846 C   0  0  0  0  0  0
  -24.1226   18.6808  -10.7396 O   0  0  0  0  0  0
  -23.2062   20.7006  -11.3898 C   0  0  0  0  0  0
  -23.0855   22.0354  -12.4811 C   0  0  0  0  0  0
  -23.0539   23.6980  -11.5926 C   0  0  0  0  0  0
  -23.2784   23.4663   -9.5983 C   0  0  0  0  0  0
  -23.4728   21.1951   -9.1334 S   0  0  0  0  0  0
  -22.3403   24.6061   -8.5156 C   0  0  0  0  0  0
  -21.3446   25.8789   -9.2703 C   0  0  0  0  0  0
  -21.2003   26.1027  -11.0171 C   0  0  0  0  0  0
  -22.0061   25.0654  -12.1867 C   0  0  0  0  0  0
  -15.7252   19.9492  -16.5054 C   0  0  0  0  0  0
  -14.9048   18.2403  -17.1328 C   0  0  0  0  0  0
  -21.9280   20.1960  -13.6991 H   0  0  0  0  0  0
  -23.5339   18.6703   -9.9727 H   0  0  0  0  0  0
  1  2  1  0  0  0
  2  3  1  0  0  0
  3  4  2  0  0  0
  3 27  1  0  0  0
  4  5  1  0  0  0
  5  6  2  0  0  0
  6  7  1  0  0  0
  6 26  1  0  0  0
  7  8  1  0  0  0
  8  9  1  0  0  0
  9 10  2  0  0  0
  9 11  2  0  0  0
  9 12  1  0  0  0
 12 13  1  0  0  0
 12 28  1  0  0  0
 13 14  1  0  0  0
 14 15  1  0  0  0
 14 16  1  0  0  0
 14 17  1  0  0  0
 16 29  1  0  0  0
 17 18  2  0  0  0
 17 21  1  0  0  0
 18 19  1  0  0  0
 19 20  2  0  0  0
 19 25  1  0  0  0
 20 21  1  0  0  0
 20 22  1  0  0  0
 22 23  2  0  0  0
 23 24  1  0  0  0
 24 25  2  0  0  0
 26 27  2  0  0  0
M  END
>  <CHROM.0>
38.82812198,64.48006193,72.52999393,-142.20100521,168.47292431,178.25450427
83.31679330,-162.68474667

>  <CHROM.1>
113.46857305,9.82497050,61.84231680,-34.49024025,-176.17063187,131.74071510
47.95394193,52.83480212,85.77241642,-20.19044273,20.29344100,-13.17131213
0.70872065,-0.58073656,-2.84518911

>  <Name>
F6414-3869

>  <RI>
3.51829e+07

>  <Rbt.Current_Directory>
/home/adria/Escritorio/rDock_CMTR_LC/2pxcA_model/inputs_sah

>  <Rbt.Executable>
rbdock ($Id: //depot/dev/client3/rdock/2013.1/src/exe/rbdock.cxx#4 $)

>  <Rbt.Library>
libRbt.so (2013.1, Build901 2013/11/27)

>  <Rbt.Parameter_File>
/home/adria/Escritorio/rDock_2013.1_src/data/scripts/dock.prm

>  <Rbt.Receptor>
sah_rdock.prm

>  <SCORE>
-386.572

>  <SCORE.INTER>
-10.3837

>  <SCORE.INTER.CONST>
1

>  <SCORE.INTER.POLAR>
0

>  <SCORE.INTER.REPUL>
0

>  <SCORE.INTER.ROT>
8

>  <SCORE.INTER.VDW>
-23.7837

>  <SCORE.INTER.norm>
-0.38458

>  <SCORE.INTRA>
-381.539

>  <SCORE.INTRA.DIHEDRAL>
-2.32878

>  <SCORE.INTRA.DIHEDRAL.0>
12.4267

>  <SCORE.INTRA.POLAR>
0

>  <SCORE.INTRA.POLAR.0>
0

>  <SCORE.INTRA.REPUL>
0

>  <SCORE.INTRA.REPUL.0>
0

>  <SCORE.INTRA.VDW>
-380.374

>  <SCORE.INTRA.VDW.0>
379.441

>  <SCORE.INTRA.norm>
-14.1311

>  <SCORE.RESTR>
0

>  <SCORE.RESTR.CAVITY>
0

>  <SCORE.RESTR.norm>
0

>  <SCORE.SYSTEM>
5.35028

>  <SCORE.SYSTEM.CONST>
0

>  <SCORE.SYSTEM.DIHEDRAL>
9.74814

>  <SCORE.SYSTEM.POLAR>
-3.57429

>  <SCORE.SYSTEM.REPUL>
0.126922

>  <SCORE.SYSTEM.VDW>
11.9942

>  <SCORE.SYSTEM.norm>
0.198158

>  <SCORE.heavy>
27

>  <SCORE.norm>
-14.3175

$$$$
F6414-3869
  rDOCK(R)          3D
libRbt.so/2013.1/901 2013/11/27
 29 31  0  0  0  0  0  0  0  0999 V2000
  -14.7507   19.2208  -16.6671 C   0  0  0  0  0  0
  -15.6014   19.9246  -15.8110 O   0  0  0  0  0  0
  -16.8683   19.5124  -16.0493 C   0  0  0  0  0  0
  -17.7964   20.6335  -16.2089 C   0  0  0  0  0  0
  -19.2850   20.2560  -16.5783 C   0  0  0  0  0  0
  -20.2190   18.5057  -17.0410 C   0  0  0  0  0  0
  -21.7436   18.0414  -17.2362 C   0  0  0  0  0  0
  -22.8127   18.9045  -16.6526 C   0  0  0  0  0  0
  -23.0912   18.8632  -14.8803 S   0  0  0  0  0  0
  -24.1886   19.7072  -14.4784 O   0  0  0  0  0  0
  -23.2120   17.4491  -14.5736 O   0  0  0  0  0  0
  -21.6482   19.2843  -14.0807 N   0  0  0  0  0  0
  -20.9001   18.4954  -13.0163 C   0  0  0  0  0  0
  -21.5798   18.4666  -11.6153 C   0  0  0  0  0  0
  -23.0424   18.0092  -11.5843 C   0  0  0  0  0  0
  -20.8569   17.7833  -10.6108 O   0  0  0  0  0  0
  -21.6500   19.8644  -11.2292 C   0  0  0  0  0  0
  -20.6918   21.1145  -11.9409 C   0  0  0  0  0  0
  -21.2467   22.8393  -11.4192 C   0  0  0  0  0  0
  -22.8890   22.7559  -10.2456 C   0  0  0  0  0  0
  -23.4783   20.5245   -9.9532 S   0  0  0  0  0  0
  -23.0087   23.9814   -8.8909 C   0  0  0  0  0  0
  -21.7191   25.2021   -8.7239 C   0  0  0  0  0  0
  -20.3145   25.2954   -9.7920 C   0  0  0  0  0  0
  -20.0368   24.1667  -11.1120 C   0  0  0  0  0  0
  -19.1134   17.1981  -16.8795 C   0  0  0  0  0  0
  -17.3367   17.8696  -16.2634 C   0  0  0  0  0  0
  -21.0158   19.5622  -14.8360 H   0  0  0  0  0  0
  -19.9837   18.1910  -10.5321 H   0  0  0  0  0  0
  1  2  1  0  0  0
  2  3  1  0  0  0
  3  4  2  0  0  0
  3 27  1  0  0  0
  4  5  1  0  0  0
  5  6  2  0  0  0
  6  7  1  0  0  0
  6 26  1  0  0  0
  7  8  1  0  0  0
  8  9  1  0  0  0
  9 10  2  0  0  0
  9 11  2  0  0  0
  9 12  1  0  0  0
 12 13  1  0  0  0
 12 28  1  0  0  0
 13 14  1  0  0  0
 14 15  1  0  0  0
 14 16  1  0  0  0
 14 17  1  0  0  0
 16 29  1  0  0  0
 17 18  2  0  0  0
 17 21  1  0  0  0
 18 19  1  0  0  0
 19 20  2  0  0  0
 19 25  1  0  0  0
 20 21  1  0  0  0
 20 22  1  0  0  0
 22 23  2  0  0  0
 23 24  1  0  0  0
 24 25  2  0  0  0
 26 27  2  0  0  0
M  END
>  <CHROM.0>
178.15221186,-69.26906320,-167.30311182,60.65039639,167.32648048,-174.38584639
-179.99645676,-159.63538796

>  <CHROM.1>
-131.90742398,-18.98961597,-75.70650618,-177.63845923,-124.85075347,-72.53942329
53.20025572,57.38670835,-18.64708833,-20.94742615,20.02043903,-13.40604142
-1.04951337,0.40300515,0.82419823

>  <Name>
F6414-3869

>  <RI>
3.51829e+07

>  <Rbt.Current_Directory>
/home/adria/Escritorio/rDock_CMTR_LC/2pxcA_model/inputs_sah

>  <Rbt.Executable>
rbdock ($Id: //depot/dev/client3/rdock/2013.1/src/exe/rbdock.cxx#4 $)

>  <Rbt.Library>
libRbt.so (2013.1, Build901 2013/11/27)

>  <Rbt.Parameter_File>
/home/adria/Escritorio/rDock_2013.1_src/data/scripts/dock.prm

>  <Rbt.Receptor>
sah_rdock.prm

>  <SCORE>
-400.529

>  <SCORE.INTER>
-18.6766

>  <SCORE.INTER.CONST>
1

>  <SCORE.INTER.POLAR>
-1.85759

>  <SCORE.INTER.REPUL>
0.0108701

>  <SCORE.INTER.ROT>
8

>  <SCORE.INTER.VDW>
-25.8151

>  <SCORE.INTER.norm>
-0.691725

>  <SCORE.INTRA>
-380.982

>  <SCORE.INTRA.DIHEDRAL>
-4.94313

>  <SCORE.INTRA.DIHEDRAL.0>
12.4267

>  <SCORE.INTRA.POLAR>
0

>  <SCORE.INTRA.POLAR.0>
0

>  <SCORE.INTRA.REPUL>
0

>  <SCORE.INTRA.REPUL.0>
0

>  <SCORE.INTRA.VDW>
-378.511

>  <SCORE.INTRA.VDW.0>
379.441

>  <SCORE.INTRA.norm>
-14.1104

>  <SCORE.RESTR>
0

>  <SCORE.RESTR.CAVITY>
0

>  <SCORE.RESTR.norm>
0

>  <SCORE.SYSTEM>
-0.870577

>  <SCORE.SYSTEM.CONST>
0

>  <SCORE.SYSTEM.DIHEDRAL>
2.24174

>  <SCORE.SYSTEM.POLAR>
-3.21906

>  <SCORE.SYSTEM.REPUL>
0.0312039

>  <SCORE.SYSTEM.VDW>
8.79733

>  <SCORE.SYSTEM.norm>
-0.0322436

>  <SCORE.heavy>
27

>  <SCORE.norm>
-14.8344

$$$$
F6414-3869
  rDOCK(R)          3D
libRbt.so/2013.1/901 2013/11/27
 29 31  0  0  0  0  0  0  0  0999 V2000
  -21.6316   25.6420   -9.3872 C   0  0  0  0  0  0
  -22.8777   25.5717  -10.0153 O   0  0  0  0  0  0
  -23.2712   24.2769  -10.0187 C   0  0  0  0  0  0
  -23.3617   23.7275  -11.3729 C   0  0  0  0  0  0
  -23.7286   22.1947  -11.4778 C   0  0  0  0  0  0
  -23.9779   20.7107  -10.1047 C   0  0  0  0  0  0
  -24.5284   19.2028  -10.1397 C   0  0  0  0  0  0
  -23.7237   18.1866  -10.8800 C   0  0  0  0  0  0
  -23.1543   18.5697  -12.5382 S   0  0  0  0  0  0
  -24.2451   18.7718  -13.4589 O   0  0  0  0  0  0
  -22.2454   19.6865  -12.3513 O   0  0  0  0  0  0
  -22.1066   17.3355  -13.0653 N   0  0  0  0  0  0
  -21.1483   17.3586  -14.2469 C   0  0  0  0  0  0
  -19.9037   18.2781  -14.0705 C   0  0  0  0  0  0
  -20.1203   19.7686  -14.3548 C   0  0  0  0  0  0
  -19.2190   18.1332  -12.8423 O   0  0  0  0  0  0
  -19.0014   17.8558  -15.1265 C   0  0  0  0  0  0
  -19.3929   16.6635  -16.3150 C   0  0  0  0  0  0
  -18.1187   16.5764  -17.7019 C   0  0  0  0  0  0
  -16.6891   17.9852  -17.4718 C   0  0  0  0  0  0
  -17.1446   19.1940  -15.5370 S   0  0  0  0  0  0
  -14.9839   17.5299  -17.9580 C   0  0  0  0  0  0
  -14.6949   15.9142  -18.6560 C   0  0  0  0  0  0
  -15.9660   14.7114  -18.9006 C   0  0  0  0  0  0
  -17.6436   14.9832  -18.4478 C   0  0  0  0  0  0
  -23.8406   21.3598   -8.5179 C   0  0  0  0  0  0
  -23.5259   23.3298   -8.6037 C   0  0  0  0  0  0
  -21.6236   17.0370  -12.2138 H   0  0  0  0  0  0
  -19.7913   18.4571  -12.1335 H   0  0  0  0  0  0
  1  2  1  0  0  0
  2  3  1  0  0  0
  3  4  2  0  0  0
  3 27  1  0  0  0
  4  5  1  0  0  0
  5  6  2  0  0  0
  6  7  1  0  0  0
  6 26  1  0  0  0
  7  8  1  0  0  0
  8  9  1  0  0  0
  9 10  2  0  0  0
  9 11  2  0  0  0
  9 12  1  0  0  0
 12 13  1  0  0  0
 12 28  1  0  0  0
 13 14  1  0  0  0
 14 15  1  0  0  0
 14 16  1  0  0  0
 14 17  1  0  0  0
 16 29  1  0  0  0
 17 18  2  0  0  0
 17 21  1  0  0  0
 18 19  1  0  0  0
 19 20  2  0  0  0
 19 25  1  0  0  0
 20 21  1  0  0  0
 20 22  1  0  0  0
 22 23  2  0  0  0
 23 24  1  0  0  0
 24 25  2  0  0  0
 26 27  2  0  0  0
M  END
>  <CHROM.0>
178.08623046,-77.24749639,71.84799477,64.58969112,168.30835902,-57.64959333
-156.55487888,-157.95861074

>  <CHROM.1>
-115.05172334,67.76969837,-48.39833569,-62.76046706,-165.19787846,70.90659496
-81.72871049,-67.66483865,3.73777513,-20.76543594,19.38865281,-13.43559293
-2.31593738,-0.55722371,-2.70148540

>  <Name>
F6414-3869

>  <RI>
3.51829e+07

>  <Rbt.Current_Directory>
/home/adria/Escritorio/rDock_CMTR_LC/2pxcA_model/inputs_sah

>  <Rbt.Executable>
rbdock ($Id: //depot/dev/client3/rdock/2013.1/src/exe/rbdock.cxx#4 $)

>  <Rbt.Library>
libRbt.so (2013.1, Build901 2013/11/27)

>  <Rbt.Parameter_File>
/home/adria/Escritorio/rDock_2013.1_src/data/scripts/dock.prm

>  <Rbt.Receptor>
sah_rdock.prm

>  <SCORE>
-398.452

>  <SCORE.INTER>
-13.5059

>  <SCORE.INTER.CONST>
1

>  <SCORE.INTER.POLAR>
-1.64313

>  <SCORE.INTER.REPUL>
0.00386004

>  <SCORE.INTER.ROT>
8

>  <SCORE.INTER.VDW>
-21.3385

>  <SCORE.INTER.norm>
-0.500217

>  <SCORE.INTRA>
-382.321

>  <SCORE.INTRA.DIHEDRAL>
-5.50365

>  <SCORE.INTRA.DIHEDRAL.0>
12.4267

>  <SCORE.INTRA.POLAR>
0

>  <SCORE.INTRA.POLAR.0>
0

>  <SCORE.INTRA.REPUL>
0

>  <SCORE.INTRA.REPUL.0>
0

>  <SCORE.INTRA.VDW>
-379.57

>  <SCORE.INTRA.VDW.0>
379.441

>  <SCORE.INTRA.norm>
-14.16

>  <SCORE.RESTR>
0

>  <SCORE.RESTR.CAVITY>
0

>  <SCORE.RESTR.norm>
0

>  <SCORE.SYSTEM>
-2.62449

>  <SCORE.SYSTEM.CONST>
0

>  <SCORE.SYSTEM.DIHEDRAL>
4.36589

>  <SCORE.SYSTEM.POLAR>
-4.07453

>  <SCORE.SYSTEM.REPUL>
0.0452224

>  <SCORE.SYSTEM.VDW>
8.81987

>  <SCORE.SYSTEM.norm>
-0.0972032

>  <SCORE.heavy>
27

>  <SCORE.norm>
-14.7575

$$$$
F6414-3869
  rDOCK(R)          3D
libRbt.so/2013.1/901 2013/11/27
 29 31  0  0  0  0  0  0  0  0999 V2000
  -13.7878   20.8099  -17.3608 C   0  0  0  0  0  0
  -13.6637   19.4999  -17.8304 O   0  0  0  0  0  0
  -14.7091   18.7846  -17.3541 C   0  0  0  0  0  0
  -14.4480   17.3439  -17.3664 C   0  0  0  0  0  0
  -15.5759   16.4281  -16.7467 C   0  0  0  0  0  0
  -17.3199   16.8127  -15.7667 C   0  0  0  0  0  0
  -18.5789   15.9379  -15.2894 C   0  0  0  0  0  0
  -19.7898   16.6673  -14.8101 C   0  0  0  0  0  0
  -20.8971   17.3998  -16.0175 S   0  0  0  0  0  0
  -20.5183   17.0822  -17.3717 O   0  0  0  0  0  0
  -22.2177   16.9699  -15.5936 O   0  0  0  0  0  0
  -20.9652   19.0816  -15.7612 N   0  0  0  0  0  0
  -21.4955   19.8251  -14.5443 C   0  0  0  0  0  0
  -20.6579   19.6461  -13.2436 C   0  0  0  0  0  0
  -21.0655   18.4822  -12.3334 C   0  0  0  0  0  0
  -19.2568   19.6229  -13.4298 O   0  0  0  0  0  0
  -20.9747   20.8238  -12.4559 C   0  0  0  0  0  0
  -20.2283   22.3668  -12.6784 C   0  0  0  0  0  0
  -21.0815   23.7331  -11.6986 C   0  0  0  0  0  0
  -22.7118   23.0324  -10.7329 C   0  0  0  0  0  0
  -22.9177   20.7587  -11.1802 S   0  0  0  0  0  0
  -23.0701   23.7374   -9.0820 C   0  0  0  0  0  0
  -22.0123   25.0291   -8.4544 C   0  0  0  0  0  0
  -20.6203   25.6692   -9.3347 C   0  0  0  0  0  0
  -20.1237   25.0684  -10.9113 C   0  0  0  0  0  0
  -17.6033   18.5087  -15.7313 C   0  0  0  0  0  0
  -16.1427   19.4720  -16.6935 C   0  0  0  0  0  0
  -20.0268   19.4098  -16.0048 H   0  0  0  0  0  0
  -19.0017   20.4119  -13.9271 H   0  0  0  0  0  0
  1  2  1  0  0  0
  2  3  1  0  0  0
  3  4  2  0  0  0
  3 27  1  0  0  0
  4  5  1  0  0  0
  5  6  2  0  0  0
  6  7  1  0  0  0
  6 26  1  0  0  0
  7  8  1  0  0  0
  8  9  1  0  0  0
  9 10  2  0  0  0
  9 11  2  0  0  0
  9 12  1  0  0  0
 12 13  1  0  0  0
 12 28  1  0  0  0
 13 14  1  0  0  0
 14 15  1  0  0  0
 14 16  1  0  0  0
 14 17  1  0  0  0
 16 29  1  0  0  0
 17 18  2  0  0  0
 17 21  1  0  0  0
 18 19  1  0  0  0
 19 20  2  0  0  0
 19 25  1  0  0  0
 20 21  1  0  0  0
 20 22  1  0  0  0
 22 23  2  0  0  0
 23 24  1  0  0  0
 24 25  2  0  0  0
 26 27  2  0  0  0
M  END
>  <CHROM.0>
177.36284416,64.09086804,75.55912606,64.45628127,168.04989919,59.75719435
-36.27186217,-166.00098120

>  <CHROM.1>
-159.46159947,-168.80340582,77.79475631,5.02363083,-64.08382214,67.63752360
-90.68839139,53.10946555,-81.87155514,-19.56358952,19.78615110,-14.11062655
-0.93900952,0.40064329,0.60167347

>  <Name>
F6414-3869

>  <RI>
3.51829e+07

>  <Rbt.Current_Directory>
/home/adria/Escritorio/rDock_CMTR_LC/2pxcA_model/inputs_sah

>  <Rbt.Executable>
rbdock ($Id: //depot/dev/client3/rdock/2013.1/src/exe/rbdock.cxx#4 $)

>  <Rbt.Library>
libRbt.so (2013.1, Build901 2013/11/27)

>  <Rbt.Parameter_File>
/home/adria/Escritorio/rDock_2013.1_src/data/scripts/dock.prm

>  <Rbt.Receptor>
sah_rdock.prm

>  <SCORE>
-395.206

>  <SCORE.INTER>
-12.226

>  <SCORE.INTER.CONST>
1

>  <SCORE.INTER.POLAR>
-0.894427

>  <SCORE.INTER.REPUL>
0.196389

>  <SCORE.INTER.ROT>
8

>  <SCORE.INTER.VDW>
-23.5669

>  <SCORE.INTER.norm>
-0.452817

>  <SCORE.INTRA>
-380.939

>  <SCORE.INTRA.DIHEDRAL>
-3.66512

>  <SCORE.INTRA.DIHEDRAL.0>
12.4267

>  <SCORE.INTRA.POLAR>
0

>  <SCORE.INTRA.POLAR.0>
0

>  <SCORE.INTRA.REPUL>
0

>  <SCORE.INTRA.REPUL.0>
0

>  <SCORE.INTRA.VDW>
-379.107

>  <SCORE.INTRA.VDW.0>
379.441

>  <SCORE.INTRA.norm>
-14.1089

>  <SCORE.RESTR>
0

>  <SCORE.RESTR.CAVITY>
0

>  <SCORE.RESTR.norm>
0

>  <SCORE.SYSTEM>
-2.04059

>  <SCORE.SYSTEM.CONST>
0

>  <SCORE.SYSTEM.DIHEDRAL>
2.96162

>  <SCORE.SYSTEM.POLAR>
-3.64322

>  <SCORE.SYSTEM.VDW>
8.86555

>  <SCORE.SYSTEM.norm>
-0.0755774

>  <SCORE.heavy>
27

>  <SCORE.norm>
-14.6373

$$$$
F6414-3869
  rDOCK(R)          3D
libRbt.so/2013.1/901 2013/11/27
 29 31  0  0  0  0  0  0  0  0999 V2000
  -15.0779   13.4862  -18.8119 C   0  0  0  0  0  0
  -14.1902   14.4137  -18.2606 O   0  0  0  0  0  0
  -14.9076   15.4847  -17.8488 C   0  0  0  0  0  0
  -14.6160   16.6845  -18.6357 C   0  0  0  0  0  0
  -15.4692   17.9676  -18.2885 C   0  0  0  0  0  0
  -17.0436   18.3155  -17.0434 C   0  0  0  0  0  0
  -17.8165   19.6205  -16.5165 C   0  0  0  0  0  0
  -19.1355   19.9440  -17.1361 C   0  0  0  0  0  0
  -20.5466   18.8972  -16.7710 S   0  0  0  0  0  0
  -21.7291   19.3014  -17.4898 O   0  0  0  0  0  0
  -20.0626   17.5509  -17.0197 O   0  0  0  0  0  0
  -20.8075   18.8822  -15.0886 N   0  0  0  0  0  0
  -21.8499   18.0963  -14.3072 C   0  0  0  0  0  0
  -21.7489   18.2231  -12.7582 C   0  0  0  0  0  0
  -22.8911   17.5924  -11.9538 C   0  0  0  0  0  0
  -20.5121   17.8239  -12.2022 O   0  0  0  0  0  0
  -21.9007   19.6456  -12.5107 C   0  0  0  0  0  0
  -23.4164   20.4193  -12.2084 C   0  0  0  0  0  0
  -23.2178   22.2046  -11.6357 C   0  0  0  0  0  0
  -21.2687   22.6943  -11.4292 C   0  0  0  0  0  0
  -19.9757   20.8485  -12.0064 S   0  0  0  0  0  0
  -20.7859   24.4018  -11.8792 C   0  0  0  0  0  0
  -22.0541   25.5396  -12.4068 C   0  0  0  0  0  0
  -23.7638   25.1113  -12.5315 C   0  0  0  0  0  0
  -24.3781   23.5025  -12.1738 C   0  0  0  0  0  0
  -17.3978   16.8924  -16.1448 C   0  0  0  0  0  0
  -16.1159   15.4381  -16.6232 C   0  0  0  0  0  0
  -19.8747   18.7391  -14.6923 H   0  0  0  0  0  0
  -19.8062   18.3168  -12.6421 H   0  0  0  0  0  0
  1  2  1  0  0  0
  2  3  1  0  0  0
  3  4  2  0  0  0
  3 27  1  0  0  0
  4  5  1  0  0  0
  5  6  2  0  0  0
  6  7  1  0  0  0
  6 26  1  0  0  0
  7  8  1  0  0  0
  8  9  1  0  0  0
  9 10  2  0  0  0
  9 11  2  0  0  0
  9 12  1  0  0  0
 12 13  1  0  0  0
 12 28  1  0  0  0
 13 14  1  0  0  0
 14 15  1  0  0  0
 14 16  1  0  0  0
 14 17  1  0  0  0
 16 29  1  0  0  0
 17 18  2  0  0  0
 17 21  1  0  0  0
 18 19  1  0  0  0
 19 20  2  0  0  0
 19 25  1  0  0  0
 20 21  1  0  0  0
 20 22  1  0  0  0
 22 23  2  0  0  0
 23 24  1  0  0  0
 24 25  2  0  0  0
 26 27  2  0  0  0
M  END
>  <CHROM.0>
38.92714553,-166.27256250,-9.03431788,67.03007258,-31.78365141,-60.03183471
83.42440126,-157.02927387

>  <CHROM.1>
-112.82271887,102.55004510,70.85486567,-177.33745044,-177.38773645,175.42831742
172.35251549,54.56987937,91.26533040,-19.75161381,19.18143069,-14.89420563
0.62838864,-0.72206360,3.12594537

>  <Name>
F6414-3869

>  <RI>
3.51829e+07

>  <Rbt.Current_Directory>
/home/adria/Escritorio/rDock_CMTR_LC/2pxcA_model/inputs_sah

>  <Rbt.Executable>
rbdock ($Id: //depot/dev/client3/rdock/2013.1/src/exe/rbdock.cxx#4 $)

>  <Rbt.Library>
libRbt.so (2013.1, Build901 2013/11/27)

>  <Rbt.Parameter_File>
/home/adria/Escritorio/rDock_2013.1_src/data/scripts/dock.prm

>  <Rbt.Receptor>
sah_rdock.prm

>  <SCORE>
-395.857

>  <SCORE.INTER>
-11.0363

>  <SCORE.INTER.CONST>
1

>  <SCORE.INTER.POLAR>
-0.577504

>  <SCORE.INTER.REPUL>
0.144152

>  <SCORE.INTER.ROT>
8

>  <SCORE.INTER.VDW>
-23.1936

>  <SCORE.INTER.norm>
-0.408753

>  <SCORE.INTRA>
-383.167

>  <SCORE.INTRA.DIHEDRAL>
-6.21613

>  <SCORE.INTRA.DIHEDRAL.0>
12.4267

>  <SCORE.INTRA.POLAR>
0

>  <SCORE.INTRA.POLAR.0>
0

>  <SCORE.INTRA.REPUL>
0

>  <SCORE.INTRA.REPUL.0>
0

>  <SCORE.INTRA.VDW>
-380.059

>  <SCORE.INTRA.VDW.0>
379.441

>  <SCORE.INTRA.norm>
-14.1914

>  <SCORE.RESTR>
0

>  <SCORE.RESTR.CAVITY>
0

>  <SCORE.RESTR.norm>
0

>  <SCORE.SYSTEM>
-1.65343

>  <SCORE.SYSTEM.CONST>
0

>  <SCORE.SYSTEM.DIHEDRAL>
11.7

>  <SCORE.SYSTEM.POLAR>
-4.20216

>  <SCORE.SYSTEM.REPUL>
0.126618

>  <SCORE.SYSTEM.VDW>
6.15082

>  <SCORE.SYSTEM.norm>
-0.0612382

>  <SCORE.heavy>
27

>  <SCORE.norm>
-14.6614

$$$$
F6414-3869
  rDOCK(R)          3D
libRbt.so/2013.1/901 2013/11/27
 29 31  0  0  0  0  0  0  0  0999 V2000
  -13.8629   20.4703  -17.4000 C   0  0  0  0  0  0
  -14.2707   19.1371  -17.4913 O   0  0  0  0  0  0
  -15.5893   19.0822  -17.1914 C   0  0  0  0  0  0
  -16.2441   17.9116  -17.7784 C   0  0  0  0  0  0
  -17.7674   17.7110  -17.4121 C   0  0  0  0  0  0
  -19.0477   18.6656  -16.1474 C   0  0  0  0  0  0
  -20.6304   18.6260  -15.8798 C   0  0  0  0  0  0
  -21.1185   19.0546  -14.5358 C   0  0  0  0  0  0
  -20.9837   17.9127  -13.1580 S   0  0  0  0  0  0
  -21.8091   16.7437  -13.3327 O   0  0  0  0  0  0
  -19.5557   17.6865  -13.0239 O   0  0  0  0  0  0
  -21.3562   18.7359  -11.7150 N   0  0  0  0  0  0
  -22.6290   18.6483  -10.8859 C   0  0  0  0  0  0
  -23.7822   19.5894  -11.3441 C   0  0  0  0  0  0
  -24.1151   19.5695  -12.8402 C   0  0  0  0  0  0
  -24.9788   19.4797  -10.5995 O   0  0  0  0  0  0
  -23.2540   20.9244  -11.1287 C   0  0  0  0  0  0
  -21.8571   21.5535  -11.9289 C   0  0  0  0  0  0
  -21.6295   23.4033  -11.6435 C   0  0  0  0  0  0
  -23.1520   24.1692  -10.5588 C   0  0  0  0  0  0
  -24.6303   22.4496  -10.0395 S   0  0  0  0  0  0
  -22.7410   25.4950   -9.3653 C   0  0  0  0  0  0
  -21.0559   26.0719   -9.2728 C   0  0  0  0  0  0
  -19.7444   25.4284  -10.2669 C   0  0  0  0  0  0
  -19.9713   24.1276  -11.4288 C   0  0  0  0  0  0
  -18.2607   20.0216  -15.4402 C   0  0  0  0  0  0
  -16.3995   20.1834  -16.1450 C   0  0  0  0  0  0
  -20.5308   18.5947  -11.1264 H   0  0  0  0  0  0
  -25.3271   18.5848  -10.7112 H   0  0  0  0  0  0
  1  2  1  0  0  0
  2  3  1  0  0  0
  3  4  2  0  0  0
  3 27  1  0  0  0
  4  5  1  0  0  0
  5  6  2  0  0  0
  6  7  1  0  0  0
  6 26  1  0  0  0
  7  8  1  0  0  0
  8  9  1  0  0  0
  9 10  2  0  0  0
  9 11  2  0  0  0
  9 12  1  0  0  0
 12 13  1  0  0  0
 12 28  1  0  0  0
 13 14  1  0  0  0
 14 15  1  0  0  0
 14 16  1  0  0  0
 14 17  1  0  0  0
 16 29  1  0  0  0
 17 18  2  0  0  0
 17 21  1  0  0  0
 18 19  1  0  0  0
 19 20  2  0  0  0
 19 25  1  0  0  0
 20 21  1  0  0  0
 20 22  1  0  0  0
 22 23  2  0  0  0
 23 24  1  0  0  0
 24 25  2  0  0  0
 26 27  2  0  0  0
M  END
>  <CHROM.0>
-65.61382953,-166.93503889,-46.95547440,-62.39974384,168.49435366,-63.79878141
-36.68954731,-53.36045300

>  <CHROM.1>
155.77477084,155.93426919,-78.41261229,-65.27576974,104.84898151,-85.40979994
48.73963402,-62.78992600,61.93591351,-20.60581953,20.34497694,-13.12293956
-0.65864526,0.55104381,0.44837620

>  <Name>
F6414-3869

>  <RI>
3.51829e+07

>  <Rbt.Current_Directory>
/home/adria/Escritorio/rDock_CMTR_LC/2pxcA_model/inputs_sah

>  <Rbt.Executable>
rbdock ($Id: //depot/dev/client3/rdock/2013.1/src/exe/rbdock.cxx#4 $)

>  <Rbt.Library>
libRbt.so (2013.1, Build901 2013/11/27)

>  <Rbt.Parameter_File>
/home/adria/Escritorio/rDock_2013.1_src/data/scripts/dock.prm

>  <Rbt.Receptor>
sah_rdock.prm

>  <SCORE>
-396.896

>  <SCORE.INTER>
-16.18

>  <SCORE.INTER.CONST>
1

>  <SCORE.INTER.POLAR>
-1.68033

>  <SCORE.INTER.REPUL>
0

>  <SCORE.INTER.ROT>
8

>  <SCORE.INTER.VDW>
-23.8669

>  <SCORE.INTER.norm>
-0.599261

>  <SCORE.INTRA>
-381.631

>  <SCORE.INTRA.DIHEDRAL>
-4.43881

>  <SCORE.INTRA.DIHEDRAL.0>
12.4267

>  <SCORE.INTRA.POLAR>
0

>  <SCORE.INTRA.POLAR.0>
0

>  <SCORE.INTRA.REPUL>
0

>  <SCORE.INTRA.REPUL.0>
0

>  <SCORE.INTRA.VDW>
-379.411

>  <SCORE.INTRA.VDW.0>
379.441

>  <SCORE.INTRA.norm>
-14.1345

>  <SCORE.RESTR>
0

>  <SCORE.RESTR.CAVITY>
0

>  <SCORE.RESTR.norm>
0

>  <SCORE.SYSTEM>
0.914652

>  <SCORE.SYSTEM.CONST>
0

>  <SCORE.SYSTEM.DIHEDRAL>
6.33646

>  <SCORE.SYSTEM.POLAR>
-3.25764

>  <SCORE.SYSTEM.REPUL>
0.00316351

>  <SCORE.SYSTEM.VDW>
8.8066

>  <SCORE.SYSTEM.norm>
0.033876

>  <SCORE.heavy>
27

>  <SCORE.norm>
-14.6998

$$$$
F6414-3869
  rDOCK(R)          3D
libRbt.so/2013.1/901 2013/11/27
 29 31  0  0  0  0  0  0  0  0999 V2000
  -14.1420   12.2654  -21.1005 C   0  0  0  0  0  0
  -15.0641   11.8959  -20.1180 O   0  0  0  0  0  0
  -15.6265   13.0249  -19.6273 C   0  0  0  0  0  0
  -17.0617   13.0974  -19.9073 C   0  0  0  0  0  0
  -17.8268   14.3376  -19.2977 C   0  0  0  0  0  0
  -17.2835   15.8475  -18.0428 C   0  0  0  0  0  0
  -17.9556   17.2194  -17.5481 C   0  0  0  0  0  0
  -17.0825   18.4265  -17.4550 C   0  0  0  0  0  0
  -17.8170   19.9956  -16.9871 S   0  0  0  0  0  0
  -16.8274   20.9702  -16.6009 O   0  0  0  0  0  0
  -18.6641   20.3404  -18.1149 O   0  0  0  0  0  0
  -18.9548   19.7296  -15.7488 N   0  0  0  0  0  0
  -18.7628   18.9695  -14.4448 C   0  0  0  0  0  0
  -20.0567   18.3378  -13.8513 C   0  0  0  0  0  0
  -20.8818   17.4677  -14.8061 C   0  0  0  0  0  0
  -19.8834   17.6511  -12.6279 O   0  0  0  0  0  0
  -20.9192   19.4772  -13.5948 C   0  0  0  0  0  0
  -22.5801   19.3496  -13.1339 C   0  0  0  0  0  0
  -23.3115   21.0012  -12.5933 C   0  0  0  0  0  0
  -21.9123   22.4585  -12.6002 C   0  0  0  0  0  0
  -19.8931   21.5437  -13.3059 S   0  0  0  0  0  0
  -22.4542   24.1321  -13.1067 C   0  0  0  0  0  0
  -24.1743   24.3932  -13.4992 C   0  0  0  0  0  0
  -25.3974   23.1194  -13.4369 C   0  0  0  0  0  0
  -25.0269   21.4543  -13.0085 C   0  0  0  0  0  0
  -15.6026   15.7368  -17.6958 C   0  0  0  0  0  0
  -14.7961   14.1963  -18.6774 C   0  0  0  0  0  0
  -19.3532   20.6558  -15.5721 H   0  0  0  0  0  0
  -20.7555   17.4135  -12.2848 H   0  0  0  0  0  0
  1  2  1  0  0  0
  2  3  1  0  0  0
  3  4  2  0  0  0
  3 27  1  0  0  0
  4  5  1  0  0  0
  5  6  2  0  0  0
  6  7  1  0  0  0
  6 26  1  0  0  0
  7  8  1  0  0  0
  8  9  1  0  0  0
  9 10  2  0  0  0
  9 11  2  0  0  0
  9 12  1  0  0  0
 12 13  1  0  0  0
 12 28  1  0  0  0
 13 14  1  0  0  0
 14 15  1  0  0  0
 14 16  1  0  0  0
 14 17  1  0  0  0
 16 29  1  0  0  0
 17 18  2  0  0  0
 17 21  1  0  0  0
 18 19  1  0  0  0
 19 20  2  0  0  0
 19 25  1  0  0  0
 20 21  1  0  0  0
 20 22  1  0  0  0
 22 23  2  0  0  0
 23 24  1  0  0  0
 24 25  2  0  0  0
 26 27  2  0  0  0
M  END
>  <CHROM.0>
-171.78797292,66.51613437,106.20767458,67.05964026,-28.09540811,-161.62928218
82.20846177,-157.13774475

>  <CHROM.1>
115.74531254,-138.07112834,176.89294264,164.77306611,51.15565360,-152.82087570
51.60659140,171.81014335,171.12456199,-19.13858569,18.56120903,-15.93724110
0.80655018,-0.63206522,-3.00304020

>  <Name>
F6414-3869

>  <RI>
3.51829e+07

>  <Rbt.Current_Directory>
/home/adria/Escritorio/rDock_CMTR_LC/2pxcA_model/inputs_sah

>  <Rbt.Executable>
rbdock ($Id: //depot/dev/client3/rdock/2013.1/src/exe/rbdock.cxx#4 $)

>  <Rbt.Library>
libRbt.so (2013.1, Build901 2013/11/27)

>  <Rbt.Parameter_File>
/home/adria/Escritorio/rDock_2013.1_src/data/scripts/dock.prm

>  <Rbt.Receptor>
sah_rdock.prm

>  <SCORE>
-402.354

>  <SCORE.INTER>
-15.5089

>  <SCORE.INTER.CONST>
1

>  <SCORE.INTER.POLAR>
-1.58943

>  <SCORE.INTER.REPUL>
0.0715412

>  <SCORE.INTER.ROT>
8

>  <SCORE.INTER.VDW>
-23.8625

>  <SCORE.INTER.norm>
-0.574404

>  <SCORE.INTRA>
-381.391

>  <SCORE.INTRA.DIHEDRAL>
-5.07629

>  <SCORE.INTRA.DIHEDRAL.0>
12.4267

>  <SCORE.INTRA.POLAR>
0

>  <SCORE.INTRA.POLAR.0>
0

>  <SCORE.INTRA.REPUL>
0

>  <SCORE.INTRA.REPUL.0>
0

>  <SCORE.INTRA.VDW>
-378.853

>  <SCORE.INTRA.VDW.0>
379.441

>  <SCORE.INTRA.norm>
-14.1256

>  <SCORE.RESTR>
0

>  <SCORE.RESTR.CAVITY>
0

>  <SCORE.RESTR.norm>
0

>  <SCORE.SYSTEM>
-5.45385

>  <SCORE.SYSTEM.CONST>
0

>  <SCORE.SYSTEM.DIHEDRAL>
10.4693

>  <SCORE.SYSTEM.POLAR>
-4.1701

>  <SCORE.SYSTEM.VDW>
3.48984

>  <SCORE.SYSTEM.norm>
-0.201994

>  <SCORE.heavy>
27

>  <SCORE.norm>
-14.902

$$$$
F6414-3869
  rDOCK(R)          3D
libRbt.so/2013.1/901 2013/11/27
 29 31  0  0  0  0  0  0  0  0999 V2000
  -27.9416   24.3962  -10.5144 C   0  0  0  0  0  0
  -26.8879   24.6916   -9.6458 O   0  0  0  0  0  0
  -25.9618   23.7119   -9.7643 C   0  0  0  0  0  0
  -24.6023   24.2435   -9.8782 C   0  0  0  0  0  0
  -23.4405   23.1748   -9.9325 C   0  0  0  0  0  0
  -23.3827   21.1484   -9.7313 C   0  0  0  0  0  0
  -22.2754   20.0088   -9.9622 C   0  0  0  0  0  0
  -21.5672   19.9844  -11.2760 C   0  0  0  0  0  0
  -22.4822   19.5166  -12.7472 S   0  0  0  0  0  0
  -23.8964   19.3927  -12.4965 O   0  0  0  0  0  0
  -22.0810   20.4970  -13.7404 O   0  0  0  0  0  0
  -21.8262   18.0766  -13.3756 N   0  0  0  0  0  0
  -20.4916   17.8819  -14.0799 C   0  0  0  0  0  0
  -20.2715   18.7741  -15.3373 C   0  0  0  0  0  0
  -21.4309   18.8267  -16.3385 C   0  0  0  0  0  0
  -19.8268   20.0892  -15.0704 O   0  0  0  0  0  0
  -19.2171   18.0963  -16.0698 C   0  0  0  0  0  0
  -19.3514   16.4911  -16.6963 C   0  0  0  0  0  0
  -17.9242   16.0380  -17.8419 C   0  0  0  0  0  0
  -16.6748   17.6030  -18.1087 C   0  0  0  0  0  0
  -17.4651   19.4026  -16.8641 S   0  0  0  0  0  0
  -14.8889   17.2286  -18.2554 C   0  0  0  0  0  0
  -14.3653   15.5240  -18.2184 C   0  0  0  0  0  0
  -15.4764   14.1619  -18.0378 C   0  0  0  0  0  0
  -17.2134   14.3601  -17.8453 C   0  0  0  0  0  0
  -24.9816   20.5359   -9.5684 C   0  0  0  0  0  0
  -26.3052   22.0273   -9.6739 C   0  0  0  0  0  0
  -21.9364   17.3994  -12.6161 H   0  0  0  0  0  0
  -19.0350   20.0376  -14.5180 H   0  0  0  0  0  0
  1  2  1  0  0  0
  2  3  1  0  0  0
  3  4  2  0  0  0
  3 27  1  0  0  0
  4  5  1  0  0  0
  5  6  2  0  0  0
  6  7  1  0  0  0
  6 26  1  0  0  0
  7  8  1  0  0  0
  8  9  1  0  0  0
  9 10  2  0  0  0
  9 11  2  0  0  0
  9 12  1  0  0  0
 12 13  1  0  0  0
 12 28  1  0  0  0
 13 14  1  0  0  0
 14 15  1  0  0  0
 14 16  1  0  0  0
 14 17  1  0  0  0
 16 29  1  0  0  0
 17 18  2  0  0  0
 17 21  1  0  0  0
 18 19  1  0  0  0
 19 20  2  0  0  0
 19 25  1  0  0  0
 20 21  1  0  0  0
 20 22  1  0  0  0
 22 23  2  0  0  0
 23 24  1  0  0  0
 24 25  2  0  0  0
 26 27  2  0  0  0
M  END
>  <CHROM.0>
-177.29306711,-167.75478860,-130.78508757,66.06226984,169.23158430,179.87611700
-36.78657105,-162.14574078

>  <CHROM.1>
134.02023241,-51.38231162,-69.29575001,8.31140345,-71.51030327,-56.43897616
-47.21238468,53.54049464,61.27880469,-21.18119556,19.54158191,-13.78301162
-2.69759169,-0.74511825,3.06508742

>  <Name>
F6414-3869

>  <RI>
3.51829e+07

>  <Rbt.Current_Directory>
/home/adria/Escritorio/rDock_CMTR_LC/2pxcA_model/inputs_sah

>  <Rbt.Executable>
rbdock ($Id: //depot/dev/client3/rdock/2013.1/src/exe/rbdock.cxx#4 $)

>  <Rbt.Library>
libRbt.so (2013.1, Build901 2013/11/27)

>  <Rbt.Parameter_File>
/home/adria/Escritorio/rDock_2013.1_src/data/scripts/dock.prm

>  <Rbt.Receptor>
sah_rdock.prm

>  <SCORE>
-390.447

>  <SCORE.INTER>
-7.484

>  <SCORE.INTER.CONST>
1

>  <SCORE.INTER.POLAR>
-0.565213

>  <SCORE.INTER.REPUL>
0.0322721

>  <SCORE.INTER.ROT>
8

>  <SCORE.INTER.VDW>
-19.1236

>  <SCORE.INTER.norm>
-0.277185

>  <SCORE.INTRA>
-382.42

>  <SCORE.INTRA.DIHEDRAL>
-2.6648

>  <SCORE.INTRA.DIHEDRAL.0>
12.4267

>  <SCORE.INTRA.POLAR>
0

>  <SCORE.INTRA.POLAR.0>
0

>  <SCORE.INTRA.REPUL>
0

>  <SCORE.INTRA.REPUL.0>
0

>  <SCORE.INTRA.VDW>
-381.088

>  <SCORE.INTRA.VDW.0>
379.441

>  <SCORE.INTRA.norm>
-14.1637

>  <SCORE.RESTR>
0.00172786

>  <SCORE.RESTR.CAVITY>
0.00172786

>  <SCORE.RESTR.norm>
6.39947e-05

>  <SCORE.SYSTEM>
-0.543997

>  <SCORE.SYSTEM.CONST>
0

>  <SCORE.SYSTEM.DIHEDRAL>
6.43385

>  <SCORE.SYSTEM.POLAR>
-4.0753

>  <SCORE.SYSTEM.VDW>
10.0951

>  <SCORE.SYSTEM.norm>
-0.020148

>  <SCORE.heavy>
27

>  <SCORE.norm>
-14.461

$$$$
F6414-3869
  rDOCK(R)          3D
libRbt.so/2013.1/901 2013/11/27
 29 31  0  0  0  0  0  0  0  0999 V2000
  -15.6261   12.0333  -15.3489 C   0  0  0  0  0  0
  -15.5404   12.3078  -16.7162 O   0  0  0  0  0  0
  -16.0638   13.5375  -16.9290 C   0  0  0  0  0  0
  -15.1511   14.4086  -17.6720 C   0  0  0  0  0  0
  -15.7068   15.8387  -18.0473 C   0  0  0  0  0  0
  -17.5243   16.7376  -17.8511 C   0  0  0  0  0  0
  -18.0868   18.2298  -18.0385 C   0  0  0  0  0  0
  -17.4013   19.3288  -17.2966 C   0  0  0  0  0  0
  -17.1586   19.1619  -15.5264 S   0  0  0  0  0  0
  -17.2357   17.7902  -15.0898 O   0  0  0  0  0  0
  -15.9084   19.8559  -15.2733 O   0  0  0  0  0  0
  -18.2878   20.1446  -14.7152 N   0  0  0  0  0  0
  -19.7932   19.9520  -14.6070 C   0  0  0  0  0  0
  -20.2424   18.6298  -13.9175 C   0  0  0  0  0  0
  -20.8758   17.5741  -14.8306 C   0  0  0  0  0  0
  -19.2643   18.0146  -13.1032 O   0  0  0  0  0  0
  -21.3367   19.0368  -13.0545 C   0  0  0  0  0  0
  -21.1296   19.6409  -11.4484 C   0  0  0  0  0  0
  -22.7217   20.3504  -10.7297 C   0  0  0  0  0  0
  -24.2198   20.3058  -12.0845 C   0  0  0  0  0  0
  -23.4129   19.3593  -14.0505 S   0  0  0  0  0  0
  -25.9033   19.9588  -11.4548 C   0  0  0  0  0  0
  -26.1338   19.7450   -9.6991 C   0  0  0  0  0  0
  -24.8210   19.8398   -8.5202 C   0  0  0  0  0  0
  -23.1454   20.1258   -8.9717 C   0  0  0  0  0  0
  -18.5983   15.6954  -17.0034 C   0  0  0  0  0  0
  -17.6610   14.0082  -16.4917 C   0  0  0  0  0  0
  -17.8744   20.2893  -13.7901 H   0  0  0  0  0  0
  -18.5447   17.7060  -13.6705 H   0  0  0  0  0  0
  1  2  1  0  0  0
  2  3  1  0  0  0
  3  4  2  0  0  0
  3 27  1  0  0  0
  4  5  1  0  0  0
  5  6  2  0  0  0
  6  7  1  0  0  0
  6 26  1  0  0  0
  7  8  1  0  0  0
  8  9  1  0  0  0
  9 10  2  0  0  0
  9 11  2  0  0  0
  9 12  1  0  0  0
 12 13  1  0  0  0
 12 28  1  0  0  0
 13 14  1  0  0  0
 14 15  1  0  0  0
 14 16  1  0  0  0
 14 17  1  0  0  0
 16 29  1  0  0  0
 17 18  2  0  0  0
 17 21  1  0  0  0
 18 19  1  0  0  0
 19 20  2  0  0  0
 19 25  1  0  0  0
 20 21  1  0  0  0
 20 22  1  0  0  0
 22 23  2  0  0  0
 23 24  1  0  0  0
 24 25  2  0  0  0
 26 27  2  0  0  0
M  END
>  <CHROM.0>
-62.51650105,-72.29012736,-165.49284810,62.45656730,31.08786617,179.16157196
-157.39591961,-163.03559378

>  <CHROM.1>
127.40716210,-53.73777094,-52.25446901,20.43989154,70.07987903,60.61854470
-109.16027520,-66.84278775,-86.02548355,-19.53608720,17.93350241,-14.47051935
0.40505223,-0.67410299,3.06450703

>  <Name>
F6414-3869

>  <RI>
3.51829e+07

>  <Rbt.Current_Directory>
/home/adria/Escritorio/rDock_CMTR_LC/2pxcA_model/inputs_sah

>  <Rbt.Executable>
rbdock ($Id: //depot/dev/client3/rdock/2013.1/src/exe/rbdock.cxx#4 $)

>  <Rbt.Library>
libRbt.so (2013.1, Build901 2013/11/27)

>  <Rbt.Parameter_File>
/home/adria/Escritorio/rDock_2013.1_src/data/scripts/dock.prm

>  <Rbt.Receptor>
sah_rdock.prm

>  <SCORE>
-387.485

>  <SCORE.INTER>
-6.69914

>  <SCORE.INTER.CONST>
1

>  <SCORE.INTER.POLAR>
-0.805395

>  <SCORE.INTER.REPUL>
0

>  <SCORE.INTER.ROT>
8

>  <SCORE.INTER.VDW>
-17.3608

>  <SCORE.INTER.norm>
-0.248116

>  <SCORE.INTRA>
-385.023

>  <SCORE.INTRA.DIHEDRAL>
-0.371252

>  <SCORE.INTRA.DIHEDRAL.0>
12.4267

>  <SCORE.INTRA.POLAR>
-0.686448

>  <SCORE.INTRA.POLAR.0>
0

>  <SCORE.INTRA.REPUL>
0

>  <SCORE.INTRA.REPUL.0>
0

>  <SCORE.INTRA.VDW>
-382.503

>  <SCORE.INTRA.VDW.0>
379.441

>  <SCORE.INTRA.norm>
-14.2601

>  <SCORE.RESTR>
0

>  <SCORE.RESTR.CAVITY>
0

>  <SCORE.RESTR.norm>
0

>  <SCORE.SYSTEM>
4.23708

>  <SCORE.SYSTEM.CONST>
0

>  <SCORE.SYSTEM.DIHEDRAL>
6.20145

>  <SCORE.SYSTEM.POLAR>
-3.73757

>  <SCORE.SYSTEM.REPUL>
0.0372433

>  <SCORE.SYSTEM.VDW>
13.6579

>  <SCORE.SYSTEM.norm>
0.156929

>  <SCORE.heavy>
27

>  <SCORE.norm>
-14.3513

$$$$
F6414-3869
  rDOCK(R)          3D
libRbt.so/2013.1/901 2013/11/27
 29 31  0  0  0  0  0  0  0  0999 V2000
  -14.7489   12.8908  -20.2436 C   0  0  0  0  0  0
  -15.9494   13.1761  -19.5884 O   0  0  0  0  0  0
  -15.8743   14.4399  -19.1104 C   0  0  0  0  0  0
  -17.1536   15.1460  -19.2037 C   0  0  0  0  0  0
  -17.1907   16.6007  -18.5895 C   0  0  0  0  0  0
  -15.8549   17.7144  -17.5286 C   0  0  0  0  0  0
  -15.7689   19.2446  -17.0498 C   0  0  0  0  0  0
  -16.3652   19.5928  -15.7264 C   0  0  0  0  0  0
  -18.1393   19.4373  -15.5053 S   0  0  0  0  0  0
  -18.8654   20.5168  -16.1262 O   0  0  0  0  0  0
  -18.4387   18.0966  -15.9758 O   0  0  0  0  0  0
  -18.4843   19.3219  -13.8420 N   0  0  0  0  0  0
  -19.8468   19.2979  -13.1653 C   0  0  0  0  0  0
  -20.7889   20.4820  -13.5343 C   0  0  0  0  0  0
  -20.3141   21.8778  -13.1150 C   0  0  0  0  0  0
  -21.2074   20.5186  -14.8840 O   0  0  0  0  0  0
  -21.9682   20.2617  -12.7167 C   0  0  0  0  0  0
  -23.5524   19.9957  -13.3546 C   0  0  0  0  0  0
  -24.7836   19.4512  -12.0346 C   0  0  0  0  0  0
  -23.8813   19.2240  -10.2414 C   0  0  0  0  0  0
  -21.6270   19.7494  -10.4744 S   0  0  0  0  0  0
  -24.8440   19.6963   -8.7578 C   0  0  0  0  0  0
  -26.5219   20.2627   -8.9701 C   0  0  0  0  0  0
  -27.3158   20.4056  -10.5423 C   0  0  0  0  0  0
  -26.5115   20.0293  -12.0605 C   0  0  0  0  0  0
  -14.3652   16.8646  -17.3988 C   0  0  0  0  0  0
  -14.4799   15.1207  -18.3646 C   0  0  0  0  0  0
  -17.9072   18.5400  -13.5206 H   0  0  0  0  0  0
  -20.4404   20.7230  -15.4362 H   0  0  0  0  0  0
  1  2  1  0  0  0
  2  3  1  0  0  0
  3  4  2  0  0  0
  3 27  1  0  0  0
  4  5  1  0  0  0
  5  6  2  0  0  0
  6  7  1  0  0  0
  6 26  1  0  0  0
  7  8  1  0  0  0
  8  9  1  0  0  0
  9 10  2  0  0  0
  9 11  2  0  0  0
  9 12  1  0  0  0
 12 13  1  0  0  0
 12 28  1  0  0  0
 13 14  1  0  0  0
 14 15  1  0  0  0
 14 16  1  0  0  0
 14 17  1  0  0  0
 16 29  1  0  0  0
 17 18  2  0  0  0
 17 21  1  0  0  0
 18 19  1  0  0  0
 19 20  2  0  0  0
 19 25  1  0  0  0
 20 21  1  0  0  0
 20 22  1  0  0  0
 22 23  2  0  0  0
 23 24  1  0  0  0
 24 25  2  0  0  0
 26 27  2  0  0  0
M  END
>  <CHROM.0>
-59.17627310,-73.38337391,-9.43047602,-59.76452678,-30.19339193,59.64301886
82.23344746,-157.45312863

>  <CHROM.1>
142.93640924,89.65328640,-65.27523577,-76.43490832,174.17059294,-53.66095392
-63.96829935,-68.27406368,-118.94736709,-19.72259902,18.58917808,-14.66381737
0.66846117,-0.47307032,-2.62187875

>  <Name>
F6414-3869

>  <RI>
3.51829e+07

>  <Rbt.Current_Directory>
/home/adria/Escritorio/rDock_CMTR_LC/2pxcA_model/inputs_sah

>  <Rbt.Executable>
rbdock ($Id: //depot/dev/client3/rdock/2013.1/src/exe/rbdock.cxx#4 $)

>  <Rbt.Library>
libRbt.so (2013.1, Build901 2013/11/27)

>  <Rbt.Parameter_File>
/home/adria/Escritorio/rDock_2013.1_src/data/scripts/dock.prm

>  <Rbt.Receptor>
sah_rdock.prm

>  <SCORE>
-401.26

>  <SCORE.INTER>
-6.17091

>  <SCORE.INTER.CONST>
1

>  <SCORE.INTER.POLAR>
0

>  <SCORE.INTER.REPUL>
0.0611221

>  <SCORE.INTER.ROT>
8

>  <SCORE.INTER.VDW>
-19.8765

>  <SCORE.INTER.norm>
-0.228552

>  <SCORE.INTRA>
-388.037

>  <SCORE.INTRA.DIHEDRAL>
-8.64406

>  <SCORE.INTRA.DIHEDRAL.0>
12.4267

>  <SCORE.INTRA.POLAR>
-0.801537

>  <SCORE.INTRA.POLAR.0>
0

>  <SCORE.INTRA.REPUL>
0

>  <SCORE.INTRA.REPUL.0>
0

>  <SCORE.INTRA.VDW>
-380.99

>  <SCORE.INTRA.VDW.0>
379.441

>  <SCORE.INTRA.norm>
-14.3718

>  <SCORE.RESTR>
0

>  <SCORE.RESTR.CAVITY>
0

>  <SCORE.RESTR.norm>
0

>  <SCORE.SYSTEM>
-7.05137

>  <SCORE.SYSTEM.CONST>
0

>  <SCORE.SYSTEM.DIHEDRAL>
9.59479

>  <SCORE.SYSTEM.POLAR>
-4.58666

>  <SCORE.SYSTEM.REPUL>
0.039213

>  <SCORE.SYSTEM.VDW>
3.54982

>  <SCORE.SYSTEM.norm>
-0.261162

>  <SCORE.heavy>
27

>  <SCORE.norm>
-14.8615

$$$$
F6414-3869
  rDOCK(R)          3D
libRbt.so/2013.1/901 2013/11/27
 29 31  0  0  0  0  0  0  0  0999 V2000
  -14.0593   18.7564  -18.3274 C   0  0  0  0  0  0
  -14.6536   17.8295  -17.4673 O   0  0  0  0  0  0
  -15.8791   18.2961  -17.1328 C   0  0  0  0  0  0
  -16.9373   17.3205  -17.4017 C   0  0  0  0  0  0
  -18.3958   17.7386  -16.9626 C   0  0  0  0  0  0
  -19.1556   19.3278  -15.9394 C   0  0  0  0  0  0
  -20.6278   19.8915  -15.6338 C   0  0  0  0  0  0
  -21.7778   19.2452  -16.3325 C   0  0  0  0  0  0
  -22.4647   17.7312  -15.6570 S   0  0  0  0  0  0
  -23.5331   17.2044  -16.4689 O   0  0  0  0  0  0
  -21.3094   16.8728  -15.4653 O   0  0  0  0  0  0
  -22.9724   18.0163  -14.0570 N   0  0  0  0  0  0
  -24.0118   17.2511  -13.2514 C   0  0  0  0  0  0
  -23.9967   17.5296  -11.7192 C   0  0  0  0  0  0
  -25.0760   16.8202  -10.8939 C   0  0  0  0  0  0
  -22.7423   17.3591  -11.0900 O   0  0  0  0  0  0
  -24.3519   18.9333  -11.6129 C   0  0  0  0  0  0
  -23.2389   20.1835  -11.1824 C   0  0  0  0  0  0
  -23.9559   21.9096  -11.4302 C   0  0  0  0  0  0
  -25.8057   21.8246  -12.2377 C   0  0  0  0  0  0
  -26.3784   19.5907  -12.5444 S   0  0  0  0  0  0
  -27.0197   23.0736  -11.6743 C   0  0  0  0  0  0
  -26.4918   24.3161  -10.5086 C   0  0  0  0  0  0
  -24.8542   24.4096   -9.8514 C   0  0  0  0  0  0
  -23.5883   23.2602  -10.2635 C   0  0  0  0  0  0
  -17.9004   20.4543  -15.6022 C   0  0  0  0  0  0
  -16.1723   19.8104  -16.3679 C   0  0  0  0  0  0
  -22.0995   18.1047  -13.5298 H   0  0  0  0  0  0
  -22.4161   16.4723  -11.2946 H   0  0  0  0  0  0
  1  2  1  0  0  0
  2  3  1  0  0  0
  3  4  2  0  0  0
  3 27  1  0  0  0
  4  5  1  0  0  0
  5  6  2  0  0  0
  6  7  1  0  0  0
  6 26  1  0  0  0
  7  8  1  0  0  0
  8  9  1  0  0  0
  9 10  2  0  0  0
  9 11  2  0  0  0
  9 12  1  0  0  0
 12 13  1  0  0  0
 12 28  1  0  0  0
 13 14  1  0  0  0
 14 15  1  0  0  0
 14 16  1  0  0  0
 14 17  1  0  0  0
 16 29  1  0  0  0
 17 18  2  0  0  0
 17 21  1  0  0  0
 18 19  1  0  0  0
 19 20  2  0  0  0
 19 25  1  0  0  0
 20 21  1  0  0  0
 20 22  1  0  0  0
 22 23  2  0  0  0
 23 24  1  0  0  0
 24 25  2  0  0  0
 26 27  2  0  0  0
M  END
>  <CHROM.0>
-53.45372225,70.85693063,-4.97248929,-58.56215179,-27.83382297,65.67303294
-36.67522998,-157.93194211

>  <CHROM.1>
126.16005368,-7.70854371,82.67689493,-177.82111571,156.79418573,165.45520655
177.28672589,-54.13900789,-107.73793277,-21.94922269,19.26852986,-14.02888065
-0.45576341,0.45714004,0.39325442

>  <Name>
F6414-3869

>  <RI>
3.51829e+07

>  <Rbt.Current_Directory>
/home/adria/Escritorio/rDock_CMTR_LC/2pxcA_model/inputs_sah

>  <Rbt.Executable>
rbdock ($Id: //depot/dev/client3/rdock/2013.1/src/exe/rbdock.cxx#4 $)

>  <Rbt.Library>
libRbt.so (2013.1, Build901 2013/11/27)

>  <Rbt.Parameter_File>
/home/adria/Escritorio/rDock_2013.1_src/data/scripts/dock.prm

>  <Rbt.Receptor>
sah_rdock.prm

>  <SCORE>
-393.613

>  <SCORE.INTER>
-3.88969

>  <SCORE.INTER.CONST>
1

>  <SCORE.INTER.POLAR>
-0.885831

>  <SCORE.INTER.REPUL>
0.0539256

>  <SCORE.INTER.ROT>
8

>  <SCORE.INTER.VDW>
-14.5475

>  <SCORE.INTER.norm>
-0.144063

>  <SCORE.INTRA>
-383.803

>  <SCORE.INTRA.DIHEDRAL>
-4.29585

>  <SCORE.INTRA.DIHEDRAL.0>
12.4267

>  <SCORE.INTRA.POLAR>
0

>  <SCORE.INTRA.POLAR.0>
0

>  <SCORE.INTRA.REPUL>
0

>  <SCORE.INTRA.REPUL.0>
0

>  <SCORE.INTRA.VDW>
-381.655

>  <SCORE.INTRA.VDW.0>
379.441

>  <SCORE.INTRA.norm>
-14.2149

>  <SCORE.RESTR>
0.212689

>  <SCORE.RESTR.CAVITY>
0.212689

>  <SCORE.RESTR.norm>
0.00787738

>  <SCORE.SYSTEM>
-6.13328

>  <SCORE.SYSTEM.CONST>
0

>  <SCORE.SYSTEM.DIHEDRAL>
10.273

>  <SCORE.SYSTEM.POLAR>
-4.32575

>  <SCORE.SYSTEM.VDW>
3.43775

>  <SCORE.SYSTEM.norm>
-0.227158

>  <SCORE.heavy>
27

>  <SCORE.norm>
-14.5783

$$$$
