F3226-2220
  rDOCK(R)          3D
libRbt.so/2013.1/901 2013/11/27
 32 34  0  0  0  0  0  0  0  0999 V2000
  -14.0737   18.7503  -18.7810 C   0  0  0  0  0  0
  -14.6602   18.0659  -17.5158 N   0  0  0  0  0  0
  -14.2266   16.7540  -16.5191 C   0  0  0  0  0  0
  -14.9766   19.0864  -16.5816 C   0  0  0  0  0  0
  -16.4751   19.0116  -16.7151 C   0  0  0  0  0  0
  -17.2353   20.1041  -15.7512 C   0  0  0  0  0  0
  -18.8368   20.1039  -15.4465 N   0  0  0  0  0  0
  -19.6516   19.7678  -14.1199 C   0  0  0  0  0  0
  -20.7322   18.9085  -14.7845 C   0  0  0  0  0  0
  -20.8643   19.1656  -16.0935 C   0  0  0  0  0  0
  -21.6931   18.6238  -17.0250 O   0  0  0  0  0  0
  -19.6465   19.8929  -16.6231 C   0  0  0  0  0  0
  -19.4311   20.0376  -17.7257 O   0  0  0  0  0  0
  -21.3067   17.9204  -13.8129 C   0  0  0  0  0  0
  -20.5501   17.2760  -13.0937 O   0  0  0  0  0  0
  -22.7390   17.6664  -13.6437 C   0  0  0  0  0  0
  -23.2987   16.8311  -12.6900 C   0  0  0  0  0  0
  -24.6770   16.7285  -12.6548 C   0  0  0  0  0  0
  -25.5067   17.4262  -13.4610 N   0  0  0  0  0  0
  -24.9383   18.2773  -14.3366 C   0  0  0  0  0  0
  -23.5748   18.4305  -14.4652 C   0  0  0  0  0  0
  -20.3952   20.9782  -13.1049 C   0  0  0  0  0  0
  -20.8816   20.9148  -11.8133 C   0  0  0  0  0  0
  -21.6605   22.0469  -11.2460 C   0  0  0  0  0  0
  -21.9929   23.2432  -11.9573 C   0  0  0  0  0  0
  -21.4826   23.3185  -13.1698 C   0  0  0  0  0  0
  -20.6989   22.2933  -13.5664 C   0  0  0  0  0  0
  -22.7446   24.5382  -11.6985 C   0  0  0  0  0  0
  -23.3802   24.3763  -10.3479 C   0  0  0  0  0  0
  -21.7412   25.7612  -11.7279 C   0  0  0  0  0  0
  -23.7970   24.8073  -12.8320 C   0  0  0  0  0  0
  -21.3133   18.8602  -17.8659 H   0  0  0  0  0  0
  1  2  1  0  0  0
  2  3  1  0  0  0
  2  4  1  0  0  0
  4  5  1  0  0  0
  5  6  1  0  0  0
  6  7  1  0  0  0
  7  8  1  0  0  0
  7 12  1  0  0  0
  8  9  1  0  0  0
  8 22  1  0  0  0
  9 10  2  0  0  0
  9 14  1  0  0  0
 10 11  1  0  0  0
 10 12  1  0  0  0
 11 32  1  0  0  0
 12 13  2  0  0  0
 14 15  2  0  0  0
 14 16  1  0  0  0
 16 17  2  0  0  0
 16 21  1  0  0  0
 17 18  1  0  0  0
 18 19  2  0  0  0
 19 20  1  0  0  0
 20 21  2  0  0  0
 22 23  2  0  0  0
 22 27  1  0  0  0
 23 24  1  0  0  0
 24 25  2  0  0  0
 25 26  1  0  0  0
 25 28  1  0  0  0
 26 27  2  0  0  0
 28 29  1  0  0  0
 28 30  1  0  0  0
 28 31  1  0  0  0
M  END
>  <CHROM.0>
-57.73412451,67.01655215,-160.58970332,60.41354664,-31.34529743,-66.31184111
83.11719849,-46.57459096

>  <CHROM.1>
107.64877383,-179.50211865,-168.14326147,110.10484241,-164.51130357,-45.53707077
-162.93524707,-175.13343620,-6.81869692,-20.49924353,20.03253510,-14.36679323
-0.57217085,0.42720179,0.36167772

>  <Name>
F3226-2220

>  <RI>
2.3538e+07

>  <Rbt.Current_Directory>
/home/adria/Escritorio/rDock_CMTR_LC/2pxcA_model/inputs_sah

>  <Rbt.Executable>
rbdock ($Id: //depot/dev/client3/rdock/2013.1/src/exe/rbdock.cxx#4 $)

>  <Rbt.Library>
libRbt.so (2013.1, Build901 2013/11/27)

>  <Rbt.Parameter_File>
/home/adria/Escritorio/rDock_2013.1_src/data/scripts/dock.prm

>  <Rbt.Receptor>
sah_rdock.prm

>  <SCORE>
-76.7105

>  <SCORE.INTER>
-16.0488

>  <SCORE.INTER.CONST>
1

>  <SCORE.INTER.POLAR>
-1.67315

>  <SCORE.INTER.REPUL>
0.178666

>  <SCORE.INTER.ROT>
8

>  <SCORE.INTER.VDW>
-24.6535

>  <SCORE.INTER.norm>
-0.517704

>  <SCORE.INTRA>
-56.0555

>  <SCORE.INTRA.DIHEDRAL>
1.35945

>  <SCORE.INTRA.DIHEDRAL.0>
11.5155

>  <SCORE.INTRA.POLAR>
0

>  <SCORE.INTRA.POLAR.0>
0

>  <SCORE.INTRA.REPUL>
-0.169236

>  <SCORE.INTRA.REPUL.0>
0.169236

>  <SCORE.INTRA.VDW>
-55.889

>  <SCORE.INTRA.VDW.0>
60.0108

>  <SCORE.INTRA.norm>
-1.80824

>  <SCORE.RESTR>
0

>  <SCORE.RESTR.CAVITY>
0

>  <SCORE.RESTR.norm>
0

>  <SCORE.SYSTEM>
-4.60625

>  <SCORE.SYSTEM.CONST>
0

>  <SCORE.SYSTEM.DIHEDRAL>
8.25738

>  <SCORE.SYSTEM.POLAR>
-3.27525

>  <SCORE.SYSTEM.REPUL>
0.0205054

>  <SCORE.SYSTEM.VDW>
2.29839

>  <SCORE.SYSTEM.norm>
-0.148589

>  <SCORE.heavy>
31

>  <SCORE.norm>
-2.47453

$$$$
F3226-2220
  rDOCK(R)          3D
libRbt.so/2013.1/901 2013/11/27
 32 34  0  0  0  0  0  0  0  0999 V2000
  -14.8243   15.6439  -18.1949 C   0  0  0  0  0  0
  -14.7980   17.1539  -17.8310 N   0  0  0  0  0  0
  -14.1527   18.5707  -18.5229 C   0  0  0  0  0  0
  -16.1212   17.5381  -17.4909 C   0  0  0  0  0  0
  -15.8409   17.9587  -16.0720 C   0  0  0  0  0  0
  -16.6853   19.3036  -15.6491 C   0  0  0  0  0  0
  -18.3071   19.3601  -15.4941 N   0  0  0  0  0  0
  -19.2356   19.4111  -14.2011 C   0  0  0  0  0  0
  -20.2591   18.3729  -14.6726 C   0  0  0  0  0  0
  -20.2758   18.2323  -16.0057 C   0  0  0  0  0  0
  -21.0237   17.4245  -16.8034 O   0  0  0  0  0  0
  -19.0129   18.7970  -16.6208 C   0  0  0  0  0  0
  -18.7020   18.6165  -17.6950 O   0  0  0  0  0  0
  -20.9209   17.7015  -13.5058 C   0  0  0  0  0  0
  -20.2263   17.2244  -12.6143 O   0  0  0  0  0  0
  -22.3704   17.5779  -13.3379 C   0  0  0  0  0  0
  -23.2946   17.5077  -14.3682 C   0  0  0  0  0  0
  -24.6269   17.3650  -14.0281 C   0  0  0  0  0  0
  -25.0731   17.2445  -12.7586 N   0  0  0  0  0  0
  -24.1475   17.2536  -11.7800 C   0  0  0  0  0  0
  -22.7998   17.4166  -12.0162 C   0  0  0  0  0  0
  -20.0579   20.8504  -13.6530 C   0  0  0  0  0  0
  -20.5735   21.9286  -14.3463 C   0  0  0  0  0  0
  -21.0486   23.1343  -13.6178 C   0  0  0  0  0  0
  -20.9936   23.3012  -12.1977 C   0  0  0  0  0  0
  -20.5487   22.2497  -11.5400 C   0  0  0  0  0  0
  -20.2394   21.1584  -12.2722 C   0  0  0  0  0  0
  -21.3673   24.3563  -11.1700 C   0  0  0  0  0  0
  -21.8665   25.5326  -11.9583 C   0  0  0  0  0  0
  -22.4795   23.7927  -10.1960 C   0  0  0  0  0  0
  -20.1345   24.7150  -10.2666 C   0  0  0  0  0  0
  -21.6979   17.0653  -16.2343 H   0  0  0  0  0  0
  1  2  1  0  0  0
  2  3  1  0  0  0
  2  4  1  0  0  0
  4  5  1  0  0  0
  5  6  1  0  0  0
  6  7  1  0  0  0
  7  8  1  0  0  0
  7 12  1  0  0  0
  8  9  1  0  0  0
  8 22  1  0  0  0
  9 10  2  0  0  0
  9 14  1  0  0  0
 10 11  1  0  0  0
 10 12  1  0  0  0
 11 32  1  0  0  0
 12 13  2  0  0  0
 14 15  2  0  0  0
 14 16  1  0  0  0
 16 17  2  0  0  0
 16 21  1  0  0  0
 17 18  1  0  0  0
 18 19  2  0  0  0
 19 20  1  0  0  0
 20 21  2  0  0  0
 22 23  2  0  0  0
 22 27  1  0  0  0
 23 24  1  0  0  0
 24 25  2  0  0  0
 25 26  1  0  0  0
 25 28  1  0  0  0
 26 27  2  0  0  0
 28 29  1  0  0  0
 28 30  1  0  0  0
 28 31  1  0  0  0
M  END
>  <CHROM.0>
-61.64705171,-72.63479682,-6.39257033,-59.67055720,-33.60846791,60.29107423
81.96161134,-162.80646159

>  <CHROM.1>
118.88032676,140.98933428,67.12039435,105.23790957,31.31321427,-50.85441021
11.12883730,29.19996256,-3.36435390,-19.99044261,19.54876145,-14.27869279
-0.79500024,0.48659012,0.45323392

>  <Name>
F3226-2220

>  <RI>
2.3538e+07

>  <Rbt.Current_Directory>
/home/adria/Escritorio/rDock_CMTR_LC/2pxcA_model/inputs_sah

>  <Rbt.Executable>
rbdock ($Id: //depot/dev/client3/rdock/2013.1/src/exe/rbdock.cxx#4 $)

>  <Rbt.Library>
libRbt.so (2013.1, Build901 2013/11/27)

>  <Rbt.Parameter_File>
/home/adria/Escritorio/rDock_2013.1_src/data/scripts/dock.prm

>  <Rbt.Receptor>
sah_rdock.prm

>  <SCORE>
-70.2525

>  <SCORE.INTER>
-10.8536

>  <SCORE.INTER.CONST>
1

>  <SCORE.INTER.POLAR>
-0.824621

>  <SCORE.INTER.REPUL>
0.536349

>  <SCORE.INTER.ROT>
8

>  <SCORE.INTER.VDW>
-24.1316

>  <SCORE.INTER.norm>
-0.350115

>  <SCORE.INTRA>
-52.4311

>  <SCORE.INTRA.DIHEDRAL>
7.66103

>  <SCORE.INTRA.DIHEDRAL.0>
11.5155

>  <SCORE.INTRA.POLAR>
0

>  <SCORE.INTRA.POLAR.0>
0

>  <SCORE.INTRA.REPUL>
-0.169236

>  <SCORE.INTRA.REPUL.0>
0.169236

>  <SCORE.INTRA.VDW>
-55.4154

>  <SCORE.INTRA.VDW.0>
60.0108

>  <SCORE.INTRA.norm>
-1.69133

>  <SCORE.RESTR>
0

>  <SCORE.RESTR.CAVITY>
0

>  <SCORE.RESTR.norm>
0

>  <SCORE.SYSTEM>
-6.96785

>  <SCORE.SYSTEM.CONST>
0

>  <SCORE.SYSTEM.DIHEDRAL>
8.68165

>  <SCORE.SYSTEM.POLAR>
-4.52219

>  <SCORE.SYSTEM.REPUL>
0.0378768

>  <SCORE.SYSTEM.VDW>
3.8774

>  <SCORE.SYSTEM.norm>
-0.224769

>  <SCORE.heavy>
31

>  <SCORE.norm>
-2.26621

$$$$
F3226-2220
  rDOCK(R)          3D
libRbt.so/2013.1/901 2013/11/27
 32 34  0  0  0  0  0  0  0  0999 V2000
  -13.8157   20.9731  -17.3044 C   0  0  0  0  0  0
  -14.4299   19.5772  -17.6000 N   0  0  0  0  0  0
  -14.2098   18.3651  -18.7767 C   0  0  0  0  0  0
  -14.4397   18.8449  -16.3844 C   0  0  0  0  0  0
  -15.9295   18.6423  -16.2936 C   0  0  0  0  0  0
  -16.7282   20.0526  -16.0223 C   0  0  0  0  0  0
  -18.3211   20.1584  -15.6920 N   0  0  0  0  0  0
  -19.1419   19.8238  -14.3688 C   0  0  0  0  0  0
  -20.2928   19.0792  -15.0536 C   0  0  0  0  0  0
  -20.4218   19.4053  -16.3475 C   0  0  0  0  0  0
  -21.3010   18.9703  -17.2887 O   0  0  0  0  0  0
  -19.1594   20.0628  -16.8637 C   0  0  0  0  0  0
  -18.9479   20.2413  -17.9621 O   0  0  0  0  0  0
  -20.9278   18.0934  -14.1180 C   0  0  0  0  0  0
  -20.2289   17.5089  -13.2967 O   0  0  0  0  0  0
  -22.3570   17.7743  -14.1008 C   0  0  0  0  0  0
  -23.3200   18.3612  -14.9062 C   0  0  0  0  0  0
  -24.6234   17.9188  -14.7761 C   0  0  0  0  0  0
  -25.0028   16.9217  -13.9472 N   0  0  0  0  0  0
  -24.0366   16.3268  -13.2214 C   0  0  0  0  0  0
  -22.7146   16.7133  -13.2621 C   0  0  0  0  0  0
  -19.7790   21.0388  -13.2888 C   0  0  0  0  0  0
  -19.7449   21.1461  -11.9118 C   0  0  0  0  0  0
  -20.5495   22.1859  -11.2178 C   0  0  0  0  0  0
  -21.4196   23.1136  -11.8735 C   0  0  0  0  0  0
  -21.4077   23.0390  -13.1889 C   0  0  0  0  0  0
  -20.5676   22.1378  -13.7411 C   0  0  0  0  0  0
  -22.3519   24.2507  -11.4904 C   0  0  0  0  0  0
  -23.7342   23.7767  -11.8352 C   0  0  0  0  0  0
  -22.2124   24.5680   -9.9467 C   0  0  0  0  0  0
  -21.9608   25.5701  -12.2461 C   0  0  0  0  0  0
  -21.7328   18.2162  -16.8985 H   0  0  0  0  0  0
  1  2  1  0  0  0
  2  3  1  0  0  0
  2  4  1  0  0  0
  4  5  1  0  0  0
  5  6  1  0  0  0
  6  7  1  0  0  0
  7  8  1  0  0  0
  7 12  1  0  0  0
  8  9  1  0  0  0
  8 22  1  0  0  0
  9 10  2  0  0  0
  9 14  1  0  0  0
 10 11  1  0  0  0
 10 12  1  0  0  0
 11 32  1  0  0  0
 12 13  2  0  0  0
 14 15  2  0  0  0
 14 16  1  0  0  0
 16 17  2  0  0  0
 16 21  1  0  0  0
 17 18  1  0  0  0
 18 19  2  0  0  0
 19 20  1  0  0  0
 20 21  2  0  0  0
 22 23  2  0  0  0
 22 27  1  0  0  0
 23 24  1  0  0  0
 24 25  2  0  0  0
 25 26  1  0  0  0
 25 28  1  0  0  0
 26 27  2  0  0  0
 28 29  1  0  0  0
 28 30  1  0  0  0
 28 31  1  0  0  0
M  END
>  <CHROM.0>
-66.07292304,-72.14848759,110.85169221,-60.91082770,-29.64344042,179.78615304
83.69274904,-165.25506207

>  <CHROM.1>
119.24537847,-67.88605199,-172.16579514,74.71060977,-133.78303460,-34.46496719
-11.68662305,-2.17710744,-113.72192307,-20.06184224,20.15881381,-14.52180361
-0.51028566,0.42474584,0.49779358

>  <Name>
F3226-2220

>  <RI>
2.3538e+07

>  <Rbt.Current_Directory>
/home/adria/Escritorio/rDock_CMTR_LC/2pxcA_model/inputs_sah

>  <Rbt.Executable>
rbdock ($Id: //depot/dev/client3/rdock/2013.1/src/exe/rbdock.cxx#4 $)

>  <Rbt.Library>
libRbt.so (2013.1, Build901 2013/11/27)

>  <Rbt.Parameter_File>
/home/adria/Escritorio/rDock_2013.1_src/data/scripts/dock.prm

>  <Rbt.Receptor>
sah_rdock.prm

>  <SCORE>
-73.2572

>  <SCORE.INTER>
-11.5634

>  <SCORE.INTER.CONST>
1

>  <SCORE.INTER.POLAR>
-0.731001

>  <SCORE.INTER.REPUL>
0.424062

>  <SCORE.INTER.ROT>
8

>  <SCORE.INTER.VDW>
-24.5983

>  <SCORE.INTER.norm>
-0.373014

>  <SCORE.INTRA>
-54.5818

>  <SCORE.INTRA.DIHEDRAL>
0.56988

>  <SCORE.INTRA.DIHEDRAL.0>
11.5155

>  <SCORE.INTRA.POLAR>
0

>  <SCORE.INTRA.POLAR.0>
0

>  <SCORE.INTRA.REPUL>
-0.169236

>  <SCORE.INTRA.REPUL.0>
0.169236

>  <SCORE.INTRA.VDW>
-54.0205

>  <SCORE.INTRA.VDW.0>
60.0108

>  <SCORE.INTRA.norm>
-1.7607

>  <SCORE.RESTR>
0.0251429

>  <SCORE.RESTR.CAVITY>
0.0251429

>  <SCORE.RESTR.norm>
0.000811062

>  <SCORE.SYSTEM>
-7.1371

>  <SCORE.SYSTEM.CONST>
0

>  <SCORE.SYSTEM.DIHEDRAL>
9.48054

>  <SCORE.SYSTEM.POLAR>
-4.60248

>  <SCORE.SYSTEM.REPUL>
0.0369796

>  <SCORE.SYSTEM.VDW>
3.58615

>  <SCORE.SYSTEM.norm>
-0.230229

>  <SCORE.heavy>
31

>  <SCORE.norm>
-2.36313

$$$$
F3226-2220
  rDOCK(R)          3D
libRbt.so/2013.1/901 2013/11/27
 32 34  0  0  0  0  0  0  0  0999 V2000
  -23.1270   24.8073  -10.5282 C   0  0  0  0  0  0
  -22.8362   24.4972  -12.0223 N   0  0  0  0  0  0
  -23.6964   24.6127  -13.4883 C   0  0  0  0  0  0
  -21.5778   25.0692  -12.3440 C   0  0  0  0  0  0
  -20.7575   23.8121  -12.2192 C   0  0  0  0  0  0
  -20.9735   22.8052  -13.4998 C   0  0  0  0  0  0
  -20.3850   21.2873  -13.5855 N   0  0  0  0  0  0
  -20.4226   20.2131  -14.7608 C   0  0  0  0  0  0
  -20.8043   19.0093  -13.8930 C   0  0  0  0  0  0
  -20.4884   19.1823  -12.6017 C   0  0  0  0  0  0
  -20.6632   18.3663  -11.5285 O   0  0  0  0  0  0
  -20.2547   20.6470  -12.2980 C   0  0  0  0  0  0
  -20.1767   21.0666  -11.2488 O   0  0  0  0  0  0
  -21.5286   17.9726  -14.6999 C   0  0  0  0  0  0
  -21.1837   16.7983  -14.6171 O   0  0  0  0  0  0
  -22.6526   18.2593  -15.5938 C   0  0  0  0  0  0
  -23.5468   19.3079  -15.4479 C   0  0  0  0  0  0
  -24.5364   19.4464  -16.4033 C   0  0  0  0  0  0
  -24.6537   18.6514  -17.4893 N   0  0  0  0  0  0
  -23.7341   17.6787  -17.6391 C   0  0  0  0  0  0
  -22.7265   17.4446  -16.7288 C   0  0  0  0  0  0
  -19.0446   19.8153  -15.7564 C   0  0  0  0  0  0
  -18.9342   19.5832  -17.1138 C   0  0  0  0  0  0
  -17.6676   19.0563  -17.6867 C   0  0  0  0  0  0
  -16.5044   18.7251  -16.9220 C   0  0  0  0  0  0
  -16.5992   18.9971  -15.6362 C   0  0  0  0  0  0
  -17.7462   19.5733  -15.2177 C   0  0  0  0  0  0
  -15.1068   18.1830  -17.1708 C   0  0  0  0  0  0
  -14.1743   19.3326  -16.9199 C   0  0  0  0  0  0
  -14.8149   16.9718  -16.1955 C   0  0  0  0  0  0
  -14.9822   17.6122  -18.6280 C   0  0  0  0  0  0
  -20.3032   18.8457  -10.7882 H   0  0  0  0  0  0
  1  2  1  0  0  0
  2  3  1  0  0  0
  2  4  1  0  0  0
  4  5  1  0  0  0
  5  6  1  0  0  0
  6  7  1  0  0  0
  7  8  1  0  0  0
  7 12  1  0  0  0
  8  9  1  0  0  0
  8 22  1  0  0  0
  9 10  2  0  0  0
  9 14  1  0  0  0
 10 11  1  0  0  0
 10 12  1  0  0  0
 11 32  1  0  0  0
 12 13  2  0  0  0
 14 15  2  0  0  0
 14 16  1  0  0  0
 16 17  2  0  0  0
 16 21  1  0  0  0
 17 18  1  0  0  0
 18 19  2  0  0  0
 19 20  1  0  0  0
 20 21  2  0  0  0
 22 23  2  0  0  0
 22 27  1  0  0  0
 23 24  1  0  0  0
 24 25  2  0  0  0
 25 26  1  0  0  0
 25 28  1  0  0  0
 26 27  2  0  0  0
 28 29  1  0  0  0
 28 30  1  0  0  0
 28 31  1  0  0  0
M  END
>  <CHROM.0>
40.33622304,-166.44488573,-163.98944263,64.53139146,168.41199877,64.15421606
-156.88050344,-49.66055261

>  <CHROM.1>
99.13957539,75.19877723,-171.84108592,-176.05243647,-138.76130684,132.00535517
179.68092934,-28.04712332,109.56876925,-20.20060893,20.00697507,-14.76328362
-2.33884855,-0.03496034,-2.43760983

>  <Name>
F3226-2220

>  <RI>
2.3538e+07

>  <Rbt.Current_Directory>
/home/adria/Escritorio/rDock_CMTR_LC/2pxcA_model/inputs_sah

>  <Rbt.Executable>
rbdock ($Id: //depot/dev/client3/rdock/2013.1/src/exe/rbdock.cxx#4 $)

>  <Rbt.Library>
libRbt.so (2013.1, Build901 2013/11/27)

>  <Rbt.Parameter_File>
/home/adria/Escritorio/rDock_2013.1_src/data/scripts/dock.prm

>  <Rbt.Receptor>
sah_rdock.prm

>  <SCORE>
-61.7719

>  <SCORE.INTER>
-14.3076

>  <SCORE.INTER.CONST>
1

>  <SCORE.INTER.POLAR>
-0.959166

>  <SCORE.INTER.REPUL>
0.0875133

>  <SCORE.INTER.ROT>
8

>  <SCORE.INTER.VDW>
-24.884

>  <SCORE.INTER.norm>
-0.461535

>  <SCORE.INTRA>
-52.4944

>  <SCORE.INTRA.DIHEDRAL>
5.26868

>  <SCORE.INTRA.DIHEDRAL.0>
11.5155

>  <SCORE.INTRA.POLAR>
0

>  <SCORE.INTRA.POLAR.0>
0

>  <SCORE.INTRA.REPUL>
-0.169236

>  <SCORE.INTRA.REPUL.0>
0.169236

>  <SCORE.INTRA.VDW>
-54.2825

>  <SCORE.INTRA.VDW.0>
60.0108

>  <SCORE.INTRA.norm>
-1.69337

>  <SCORE.RESTR>
0

>  <SCORE.RESTR.CAVITY>
0

>  <SCORE.RESTR.norm>
0

>  <SCORE.SYSTEM>
5.03001

>  <SCORE.SYSTEM.CONST>
0

>  <SCORE.SYSTEM.DIHEDRAL>
7.94917

>  <SCORE.SYSTEM.POLAR>
-3.19689

>  <SCORE.SYSTEM.REPUL>
0.1347

>  <SCORE.SYSTEM.VDW>
11.2514

>  <SCORE.SYSTEM.norm>
0.162258

>  <SCORE.heavy>
31

>  <SCORE.norm>
-1.99264

$$$$
F3226-2220
  rDOCK(R)          3D
libRbt.so/2013.1/901 2013/11/27
 32 34  0  0  0  0  0  0  0  0999 V2000
  -25.8749   21.6888   -8.0291 C   0  0  0  0  0  0
  -26.3356   21.4245   -9.4889 N   0  0  0  0  0  0
  -27.5898   21.9813  -10.4986 C   0  0  0  0  0  0
  -25.1912   21.5096  -10.3239 C   0  0  0  0  0  0
  -25.0639   20.0396  -10.6265 C   0  0  0  0  0  0
  -24.2830   19.7677  -12.0466 C   0  0  0  0  0  0
  -23.1982   20.7882  -12.7095 N   0  0  0  0  0  0
  -21.6166   20.8854  -12.5500 C   0  0  0  0  0  0
  -21.5441   22.4078  -12.3930 C   0  0  0  0  0  0
  -22.6155   23.0315  -12.9033 C   0  0  0  0  0  0
  -22.9302   24.3529  -12.9584 O   0  0  0  0  0  0
  -23.7632   22.0617  -13.0888 C   0  0  0  0  0  0
  -24.8270   22.3818  -13.3096 O   0  0  0  0  0  0
  -20.3265   22.8110  -11.6149 C   0  0  0  0  0  0
  -19.4141   22.0045  -11.4671 O   0  0  0  0  0  0
  -20.1323   24.1311  -11.0115 C   0  0  0  0  0  0
  -18.9105   24.6765  -10.6504 C   0  0  0  0  0  0
  -18.9086   25.9516  -10.1160 C   0  0  0  0  0  0
  -20.0169   26.7100   -9.9688 N   0  0  0  0  0  0
  -21.1827   26.1792  -10.3853 C   0  0  0  0  0  0
  -21.2909   24.9082  -10.9066 C   0  0  0  0  0  0
  -20.4840   20.3589  -13.7700 C   0  0  0  0  0  0
  -19.9916   20.9928  -14.8945 C   0  0  0  0  0  0
  -19.1849   20.2395  -15.8905 C   0  0  0  0  0  0
  -18.8791   18.8444  -15.8024 C   0  0  0  0  0  0
  -19.3080   18.2587  -14.7028 C   0  0  0  0  0  0
  -19.9393   19.0410  -13.8016 C   0  0  0  0  0  0
  -18.1218   17.8020  -16.6078 C   0  0  0  0  0  0
  -17.7132   18.4884  -17.8790 C   0  0  0  0  0  0
  -16.8663   17.2937  -15.7900 C   0  0  0  0  0  0
  -19.0176   16.5387  -16.8656 C   0  0  0  0  0  0
  -23.8397   24.3821  -13.2399 H   0  0  0  0  0  0
  1  2  1  0  0  0
  2  3  1  0  0  0
  2  4  1  0  0  0
  4  5  1  0  0  0
  5  6  1  0  0  0
  6  7  1  0  0  0
  7  8  1  0  0  0
  7 12  1  0  0  0
  8  9  1  0  0  0
  8 22  1  0  0  0
  9 10  2  0  0  0
  9 14  1  0  0  0
 10 11  1  0  0  0
 10 12  1  0  0  0
 11 32  1  0  0  0
 12 13  2  0  0  0
 14 15  2  0  0  0
 14 16  1  0  0  0
 16 17  2  0  0  0
 16 21  1  0  0  0
 17 18  1  0  0  0
 18 19  2  0  0  0
 19 20  1  0  0  0
 20 21  2  0  0  0
 22 23  2  0  0  0
 22 27  1  0  0  0
 23 24  1  0  0  0
 24 25  2  0  0  0
 25 26  1  0  0  0
 25 28  1  0  0  0
 26 27  2  0  0  0
 28 29  1  0  0  0
 28 30  1  0  0  0
 28 31  1  0  0  0
M  END
>  <CHROM.0>
178.12515962,-74.40415136,-47.05657424,55.71851197,-32.48377566,-65.68270560
-126.41659812,-163.52361533

>  <CHROM.1>
107.93714500,155.07980789,26.55071907,90.36638889,83.80075429,16.31663420
-169.28838757,-159.31998204,-6.17327693,-21.51178510,21.51836987,-12.66579553
2.24827845,0.36670126,0.58167594

>  <Name>
F3226-2220

>  <RI>
2.3538e+07

>  <Rbt.Current_Directory>
/home/adria/Escritorio/rDock_CMTR_LC/2pxcA_model/inputs_sah

>  <Rbt.Executable>
rbdock ($Id: //depot/dev/client3/rdock/2013.1/src/exe/rbdock.cxx#4 $)

>  <Rbt.Library>
libRbt.so (2013.1, Build901 2013/11/27)

>  <Rbt.Parameter_File>
/home/adria/Escritorio/rDock_2013.1_src/data/scripts/dock.prm

>  <Rbt.Receptor>
sah_rdock.prm

>  <SCORE>
-71.2495

>  <SCORE.INTER>
-10.8432

>  <SCORE.INTER.CONST>
1

>  <SCORE.INTER.POLAR>
-0.938083

>  <SCORE.INTER.REPUL>
0

>  <SCORE.INTER.ROT>
8

>  <SCORE.INTER.VDW>
-21.0537

>  <SCORE.INTER.norm>
-0.349781

>  <SCORE.INTRA>
-55.7333

>  <SCORE.INTRA.DIHEDRAL>
0.508763

>  <SCORE.INTRA.DIHEDRAL.0>
11.5155

>  <SCORE.INTRA.POLAR>
0

>  <SCORE.INTRA.POLAR.0>
0

>  <SCORE.INTRA.REPUL>
-0.169236

>  <SCORE.INTRA.REPUL.0>
0.169236

>  <SCORE.INTRA.VDW>
-55.1415

>  <SCORE.INTRA.VDW.0>
60.0108

>  <SCORE.INTRA.norm>
-1.79785

>  <SCORE.RESTR>
0.00769921

>  <SCORE.RESTR.CAVITY>
0.00769921

>  <SCORE.RESTR.norm>
0.000248361

>  <SCORE.SYSTEM>
-4.68067

>  <SCORE.SYSTEM.CONST>
0

>  <SCORE.SYSTEM.DIHEDRAL>
8.57944

>  <SCORE.SYSTEM.POLAR>
-3.8326

>  <SCORE.SYSTEM.REPUL>
0.040946

>  <SCORE.SYSTEM.VDW>
3.85571

>  <SCORE.SYSTEM.norm>
-0.150989

>  <SCORE.heavy>
31

>  <SCORE.norm>
-2.29837

$$$$
F3226-2220
  rDOCK(R)          3D
libRbt.so/2013.1/901 2013/11/27
 32 34  0  0  0  0  0  0  0  0999 V2000
  -17.6368   15.2759  -17.8846 C   0  0  0  0  0  0
  -16.2085   15.8556  -17.6919 N   0  0  0  0  0  0
  -14.6933   15.6582  -18.4453 C   0  0  0  0  0  0
  -16.3276   17.2652  -17.5777 C   0  0  0  0  0  0
  -16.1562   17.3524  -16.0837 C   0  0  0  0  0  0
  -16.5211   18.8474  -15.5073 C   0  0  0  0  0  0
  -17.9960   19.5352  -15.6037 N   0  0  0  0  0  0
  -19.3266   19.2846  -14.7651 C   0  0  0  0  0  0
  -20.2908   19.2719  -15.9558 C   0  0  0  0  0  0
  -19.7970   19.9081  -17.0275 C   0  0  0  0  0  0
  -20.3291   20.1115  -18.2618 O   0  0  0  0  0  0
  -18.2964   20.0719  -16.9100 C   0  0  0  0  0  0
  -17.6299   20.3906  -17.7687 O   0  0  0  0  0  0
  -21.5143   18.4600  -15.6485 C   0  0  0  0  0  0
  -21.4816   17.6495  -14.7283 O   0  0  0  0  0  0
  -22.7819   18.5707  -16.3735 C   0  0  0  0  0  0
  -23.0770   19.5263  -17.3327 C   0  0  0  0  0  0
  -24.3182   19.4669  -17.9387 C   0  0  0  0  0  0
  -25.2371   18.5096  -17.6848 N   0  0  0  0  0  0
  -24.9001   17.5574  -16.7937 C   0  0  0  0  0  0
  -23.6987   17.5451  -16.1188 C   0  0  0  0  0  0
  -19.9168   20.3725  -13.5336 C   0  0  0  0  0  0
  -20.5621   20.1332  -12.3356 C   0  0  0  0  0  0
  -21.1475   21.2573  -11.5585 C   0  0  0  0  0  0
  -21.1277   22.6279  -11.9693 C   0  0  0  0  0  0
  -20.4665   22.8547  -13.0863 C   0  0  0  0  0  0
  -19.8749   21.7915  -13.6714 C   0  0  0  0  0  0
  -21.6138   23.9696  -11.4475 C   0  0  0  0  0  0
  -22.5219   23.6526  -10.2946 C   0  0  0  0  0  0
  -20.3816   24.8522  -10.9937 C   0  0  0  0  0  0
  -22.3384   24.7786  -12.5813 C   0  0  0  0  0  0
  -19.6383   20.5306  -18.7663 H   0  0  0  0  0  0
  1  2  1  0  0  0
  2  3  1  0  0  0
  2  4  1  0  0  0
  4  5  1  0  0  0
  5  6  1  0  0  0
  6  7  1  0  0  0
  7  8  1  0  0  0
  7 12  1  0  0  0
  8  9  1  0  0  0
  8 22  1  0  0  0
  9 10  2  0  0  0
  9 14  1  0  0  0
 10 11  1  0  0  0
 10 12  1  0  0  0
 11 32  1  0  0  0
 12 13  2  0  0  0
 14 15  2  0  0  0
 14 16  1  0  0  0
 16 17  2  0  0  0
 16 21  1  0  0  0
 17 18  1  0  0  0
 18 19  2  0  0  0
 19 20  1  0  0  0
 20 21  2  0  0  0
 22 23  2  0  0  0
 22 27  1  0  0  0
 23 24  1  0  0  0
 24 25  2  0  0  0
 25 26  1  0  0  0
 25 28  1  0  0  0
 26 27  2  0  0  0
 28 29  1  0  0  0
 28 30  1  0  0  0
 28 31  1  0  0  0
M  END
>  <CHROM.0>
-63.37055298,-74.87159726,-166.45792334,-62.56529444,168.32802234,-175.78514348
-37.47277149,-50.62032766

>  <CHROM.1>
102.86623681,-169.02294796,62.88309903,76.58893319,-144.31979592,-18.98386695
-174.62247480,-7.47105220,-11.27213022,-20.19549859,19.73607756,-15.31826348
1.07181114,0.08509210,-2.35716597

>  <Name>
F3226-2220

>  <RI>
2.3538e+07

>  <Rbt.Current_Directory>
/home/adria/Escritorio/rDock_CMTR_LC/2pxcA_model/inputs_sah

>  <Rbt.Executable>
rbdock ($Id: //depot/dev/client3/rdock/2013.1/src/exe/rbdock.cxx#4 $)

>  <Rbt.Library>
libRbt.so (2013.1, Build901 2013/11/27)

>  <Rbt.Parameter_File>
/home/adria/Escritorio/rDock_2013.1_src/data/scripts/dock.prm

>  <Rbt.Receptor>
sah_rdock.prm

>  <SCORE>
-68.4215

>  <SCORE.INTER>
-10.0829

>  <SCORE.INTER.CONST>
1

>  <SCORE.INTER.POLAR>
-0.848528

>  <SCORE.INTER.REPUL>
0

>  <SCORE.INTER.ROT>
8

>  <SCORE.INTER.VDW>
-20.5979

>  <SCORE.INTER.norm>
-0.325254

>  <SCORE.INTRA>
-58.1428

>  <SCORE.INTRA.DIHEDRAL>
-4.1771

>  <SCORE.INTRA.DIHEDRAL.0>
11.5155

>  <SCORE.INTRA.POLAR>
0

>  <SCORE.INTRA.POLAR.0>
0

>  <SCORE.INTRA.REPUL>
-0.169236

>  <SCORE.INTRA.REPUL.0>
0.169236

>  <SCORE.INTRA.VDW>
-55.2081

>  <SCORE.INTRA.VDW.0>
60.0108

>  <SCORE.INTRA.norm>
-1.87558

>  <SCORE.RESTR>
0

>  <SCORE.RESTR.CAVITY>
0

>  <SCORE.RESTR.norm>
0

>  <SCORE.SYSTEM>
-0.195785

>  <SCORE.SYSTEM.CONST>
0

>  <SCORE.SYSTEM.DIHEDRAL>
6.23437

>  <SCORE.SYSTEM.POLAR>
-3.5601

>  <SCORE.SYSTEM.REPUL>
0.0518803

>  <SCORE.SYSTEM.VDW>
8.53196

>  <SCORE.SYSTEM.norm>
-0.00631563

>  <SCORE.heavy>
31

>  <SCORE.norm>
-2.20715

$$$$
F3226-2220
  rDOCK(R)          3D
libRbt.so/2013.1/901 2013/11/27
 32 34  0  0  0  0  0  0  0  0999 V2000
  -24.2543   17.0407  -12.2136 C   0  0  0  0  0  0
  -24.5525   18.4424  -12.8133 N   0  0  0  0  0  0
  -24.3252   19.2050  -14.3196 C   0  0  0  0  0  0
  -25.8928   18.7748  -12.4856 C   0  0  0  0  0  0
  -25.5905   19.6299  -11.2830 C   0  0  0  0  0  0
  -25.2055   21.1712  -11.7034 C   0  0  0  0  0  0
  -23.8370   21.5981  -12.4795 N   0  0  0  0  0  0
  -22.3089   21.2808  -12.1617 C   0  0  0  0  0  0
  -21.7751   22.6952  -12.4116 C   0  0  0  0  0  0
  -22.5836   23.4215  -13.1964 C   0  0  0  0  0  0
  -22.4728   24.7011  -13.6420 O   0  0  0  0  0  0
  -23.9679   22.8107  -13.2522 C   0  0  0  0  0  0
  -24.8728   23.3427  -13.6780 O   0  0  0  0  0  0
  -20.5194   22.9423  -11.6289 C   0  0  0  0  0  0
  -19.7089   22.0319  -11.4910 O   0  0  0  0  0  0
  -20.1713   24.2229  -11.0096 C   0  0  0  0  0  0
  -18.9095   24.5815  -10.5627 C   0  0  0  0  0  0
  -18.7531   25.8459  -10.0258 C   0  0  0  0  0  0
  -19.7423   26.7632   -9.9541 N   0  0  0  0  0  0
  -20.9429   26.4102  -10.4524 C   0  0  0  0  0  0
  -21.2044   25.1659  -10.9837 C   0  0  0  0  0  0
  -21.3540   20.1194  -13.0492 C   0  0  0  0  0  0
  -20.4783   19.1396  -12.6229 C   0  0  0  0  0  0
  -19.6282   18.4123  -13.6019 C   0  0  0  0  0  0
  -19.6119   18.6639  -15.0104 C   0  0  0  0  0  0
  -20.4857   19.5631  -15.4157 C   0  0  0  0  0  0
  -21.2924   20.0972  -14.4741 C   0  0  0  0  0  0
  -18.8956   18.1375  -16.2428 C   0  0  0  0  0  0
  -19.8990   17.2832  -16.9623 C   0  0  0  0  0  0
  -18.4064   19.3445  -17.1412 C   0  0  0  0  0  0
  -17.6046   17.3406  -15.8386 C   0  0  0  0  0  0
  -23.3109   24.8977  -14.0498 H   0  0  0  0  0  0
  1  2  1  0  0  0
  2  3  1  0  0  0
  2  4  1  0  0  0
  4  5  1  0  0  0
  5  6  1  0  0  0
  6  7  1  0  0  0
  7  8  1  0  0  0
  7 12  1  0  0  0
  8  9  1  0  0  0
  8 22  1  0  0  0
  9 10  2  0  0  0
  9 14  1  0  0  0
 10 11  1  0  0  0
 10 12  1  0  0  0
 11 32  1  0  0  0
 12 13  2  0  0  0
 14 15  2  0  0  0
 14 16  1  0  0  0
 16 17  2  0  0  0
 16 21  1  0  0  0
 17 18  1  0  0  0
 18 19  2  0  0  0
 19 20  1  0  0  0
 20 21  2  0  0  0
 22 23  2  0  0  0
 22 27  1  0  0  0
 23 24  1  0  0  0
 24 25  2  0  0  0
 25 26  1  0  0  0
 25 28  1  0  0  0
 26 27  2  0  0  0
 28 29  1  0  0  0
 28 30  1  0  0  0
 28 31  1  0  0  0
M  END
>  <CHROM.0>
39.66390900,68.00559205,-158.52263126,-59.67728347,-31.36845135,-175.19653092
-36.40104506,-42.22934857

>  <CHROM.1>
97.70601934,83.21926703,-68.97339841,-51.80097922,-135.32453502,37.16953826
-170.77312478,-163.78340699,104.64271249,-21.63795442,21.26087402,-13.00693921
1.56541686,-0.26156460,-2.62142512

>  <Name>
F3226-2220

>  <RI>
2.3538e+07

>  <Rbt.Current_Directory>
/home/adria/Escritorio/rDock_CMTR_LC/2pxcA_model/inputs_sah

>  <Rbt.Executable>
rbdock ($Id: //depot/dev/client3/rdock/2013.1/src/exe/rbdock.cxx#4 $)

>  <Rbt.Library>
libRbt.so (2013.1, Build901 2013/11/27)

>  <Rbt.Parameter_File>
/home/adria/Escritorio/rDock_2013.1_src/data/scripts/dock.prm

>  <Rbt.Receptor>
sah_rdock.prm

>  <SCORE>
-71.5171

>  <SCORE.INTER>
-15.2568

>  <SCORE.INTER.CONST>
1

>  <SCORE.INTER.POLAR>
-1.82467

>  <SCORE.INTER.REPUL>
0

>  <SCORE.INTER.ROT>
8

>  <SCORE.INTER.VDW>
-22.4529

>  <SCORE.INTER.norm>
-0.492154

>  <SCORE.INTRA>
-56.157

>  <SCORE.INTRA.DIHEDRAL>
-0.3908

>  <SCORE.INTRA.DIHEDRAL.0>
11.5155

>  <SCORE.INTRA.POLAR>
0

>  <SCORE.INTRA.POLAR.0>
0

>  <SCORE.INTRA.REPUL>
-0.141074

>  <SCORE.INTRA.REPUL.0>
0.169236

>  <SCORE.INTRA.VDW>
-55.2562

>  <SCORE.INTRA.VDW.0>
60.0108

>  <SCORE.INTRA.norm>
-1.81152

>  <SCORE.RESTR>
0

>  <SCORE.RESTR.CAVITY>
0

>  <SCORE.RESTR.norm>
0

>  <SCORE.SYSTEM>
-0.103352

>  <SCORE.SYSTEM.CONST>
0

>  <SCORE.SYSTEM.DIHEDRAL>
9.96363

>  <SCORE.SYSTEM.POLAR>
-3.24352

>  <SCORE.SYSTEM.REPUL>
0.155827

>  <SCORE.SYSTEM.VDW>
5.16368

>  <SCORE.SYSTEM.norm>
-0.00333392

>  <SCORE.heavy>
31

>  <SCORE.norm>
-2.307

$$$$
F3226-2220
  rDOCK(R)          3D
libRbt.so/2013.1/901 2013/11/27
 32 34  0  0  0  0  0  0  0  0999 V2000
  -21.7450   25.2454  -12.2144 C   0  0  0  0  0  0
  -22.4214   23.8527  -12.3410 N   0  0  0  0  0  0
  -23.9043   23.2593  -12.9338 C   0  0  0  0  0  0
  -21.4717   22.9624  -12.9062 C   0  0  0  0  0  0
  -21.0127   22.3282  -11.6193 C   0  0  0  0  0  0
  -20.0567   21.0181  -11.8841 C   0  0  0  0  0  0
  -20.5909   19.5930  -12.4683 N   0  0  0  0  0  0
  -20.8238   19.0936  -13.9626 C   0  0  0  0  0  0
  -22.1852   18.4329  -13.7220 C   0  0  0  0  0  0
  -22.3835   18.1114  -12.4357 C   0  0  0  0  0  0
  -23.4449   17.5250  -11.8211 O   0  0  0  0  0  0
  -21.4245   18.8666  -11.5399 C   0  0  0  0  0  0
  -21.5279   18.9213  -10.4132 O   0  0  0  0  0  0
  -22.9978   18.4007  -14.9826 C   0  0  0  0  0  0
  -22.6418   17.6786  -15.9082 O   0  0  0  0  0  0
  -24.2215   19.1762  -15.1959 C   0  0  0  0  0  0
  -24.9442   19.2264  -16.3773 C   0  0  0  0  0  0
  -26.0955   19.9916  -16.3945 C   0  0  0  0  0  0
  -26.5789   20.6523  -15.3198 N   0  0  0  0  0  0
  -25.8903   20.5360  -14.1680 C   0  0  0  0  0  0
  -24.7191   19.8185  -14.0569 C   0  0  0  0  0  0
  -19.7619   17.9826  -14.7911 C   0  0  0  0  0  0
  -19.5095   16.6390  -14.5921 C   0  0  0  0  0  0
  -18.3955   15.9677  -15.3123 C   0  0  0  0  0  0
  -17.4994   16.6220  -16.2159 C   0  0  0  0  0  0
  -17.7777   17.8903  -16.4398 C   0  0  0  0  0  0
  -18.8709   18.3923  -15.8269 C   0  0  0  0  0  0
  -16.3028   16.2592  -17.0793 C   0  0  0  0  0  0
  -16.8032   16.2748  -18.4948 C   0  0  0  0  0  0
  -15.1396   17.3090  -16.8603 C   0  0  0  0  0  0
  -15.7178   14.8633  -16.6618 C   0  0  0  0  0  0
  -23.2466   17.5613  -10.8902 H   0  0  0  0  0  0
  1  2  1  0  0  0
  2  3  1  0  0  0
  2  4  1  0  0  0
  4  5  1  0  0  0
  5  6  1  0  0  0
  6  7  1  0  0  0
  7  8  1  0  0  0
  7 12  1  0  0  0
  8  9  1  0  0  0
  8 22  1  0  0  0
  9 10  2  0  0  0
  9 14  1  0  0  0
 10 11  1  0  0  0
 10 12  1  0  0  0
 11 32  1  0  0  0
 12 13  2  0  0  0
 14 15  2  0  0  0
 14 16  1  0  0  0
 16 17  2  0  0  0
 16 21  1  0  0  0
 17 18  1  0  0  0
 18 19  2  0  0  0
 19 20  1  0  0  0
 20 21  2  0  0  0
 22 23  2  0  0  0
 22 27  1  0  0  0
 23 24  1  0  0  0
 24 25  2  0  0  0
 25 26  1  0  0  0
 25 28  1  0  0  0
 26 27  2  0  0  0
 28 29  1  0  0  0
 28 30  1  0  0  0
 28 31  1  0  0  0
M  END
>  <CHROM.0>
-178.38264579,65.65618144,-167.81219411,63.81429694,169.15626994,-177.96849632
-36.10302682,-166.04269118

>  <CHROM.1>
98.29455434,170.11985306,-70.96586569,84.90320913,68.87937267,68.52807163
-173.47851816,175.85406927,107.17192219,-21.18035722,19.16409190,-14.31017153
-2.42574013,0.11742503,-2.42901602

>  <Name>
F3226-2220

>  <RI>
2.3538e+07

>  <Rbt.Current_Directory>
/home/adria/Escritorio/rDock_CMTR_LC/2pxcA_model/inputs_sah

>  <Rbt.Executable>
rbdock ($Id: //depot/dev/client3/rdock/2013.1/src/exe/rbdock.cxx#4 $)

>  <Rbt.Library>
libRbt.so (2013.1, Build901 2013/11/27)

>  <Rbt.Parameter_File>
/home/adria/Escritorio/rDock_2013.1_src/data/scripts/dock.prm

>  <Rbt.Receptor>
sah_rdock.prm

>  <SCORE>
-63.8045

>  <SCORE.INTER>
-7.41724

>  <SCORE.INTER.CONST>
1

>  <SCORE.INTER.POLAR>
-0.129199

>  <SCORE.INTER.REPUL>
0

>  <SCORE.INTER.ROT>
8

>  <SCORE.INTER.VDW>
-20.378

>  <SCORE.INTER.norm>
-0.239266

>  <SCORE.INTRA>
-54.6631

>  <SCORE.INTRA.DIHEDRAL>
3.66954

>  <SCORE.INTRA.DIHEDRAL.0>
11.5155

>  <SCORE.INTRA.POLAR>
0

>  <SCORE.INTRA.POLAR.0>
0

>  <SCORE.INTRA.REPUL>
-0.169236

>  <SCORE.INTRA.REPUL.0>
0.169236

>  <SCORE.INTRA.VDW>
-55.6517

>  <SCORE.INTRA.VDW.0>
60.0108

>  <SCORE.INTRA.norm>
-1.76332

>  <SCORE.RESTR>
0

>  <SCORE.RESTR.CAVITY>
0

>  <SCORE.RESTR.norm>
0

>  <SCORE.SYSTEM>
-1.72417

>  <SCORE.SYSTEM.CONST>
0

>  <SCORE.SYSTEM.DIHEDRAL>
2.68435

>  <SCORE.SYSTEM.POLAR>
-3.52692

>  <SCORE.SYSTEM.VDW>
8.92519

>  <SCORE.SYSTEM.norm>
-0.0556184

>  <SCORE.heavy>
31

>  <SCORE.norm>
-2.05821

$$$$
F3226-2220
  rDOCK(R)          3D
libRbt.so/2013.1/901 2013/11/27
 32 34  0  0  0  0  0  0  0  0999 V2000
  -22.5824   24.7484  -12.5806 C   0  0  0  0  0  0
  -23.1557   23.3049  -12.5494 N   0  0  0  0  0  0
  -24.5826   22.5408  -13.0807 C   0  0  0  0  0  0
  -22.1359   22.4266  -12.9995 C   0  0  0  0  0  0
  -21.9325   21.6873  -11.7029 C   0  0  0  0  0  0
  -20.5540   20.7928  -11.7128 C   0  0  0  0  0  0
  -20.2908   19.5202  -12.6970 N   0  0  0  0  0  0
  -20.0806   19.4402  -14.2738 C   0  0  0  0  0  0
  -20.9987   18.2378  -14.5175 C   0  0  0  0  0  0
  -21.1813   17.4955  -13.4162 C   0  0  0  0  0  0
  -21.9163   16.3693  -13.2171 O   0  0  0  0  0  0
  -20.7995   18.2739  -12.1750 C   0  0  0  0  0  0
  -21.0537   17.9421  -11.1222 O   0  0  0  0  0  0
  -21.5424   18.2509  -15.9156 C   0  0  0  0  0  0
  -20.9400   17.6506  -16.7997 O   0  0  0  0  0  0
  -22.7749   18.9331  -16.3156 C   0  0  0  0  0  0
  -23.1389   19.2343  -17.6184 C   0  0  0  0  0  0
  -24.3555   19.8600  -17.8175 C   0  0  0  0  0  0
  -25.2256   20.1516  -16.8260 N   0  0  0  0  0  0
  -24.8741   19.7919  -15.5765 C   0  0  0  0  0  0
  -23.6730   19.1880  -15.2736 C   0  0  0  0  0  0
  -18.5323   19.1697  -15.0339 C   0  0  0  0  0  0
  -17.5843   20.0515  -15.5161 C   0  0  0  0  0  0
  -16.4303   19.5553  -16.3113 C   0  0  0  0  0  0
  -16.2142   18.1855  -16.6642 C   0  0  0  0  0  0
  -17.0936   17.3449  -16.1581 C   0  0  0  0  0  0
  -18.0479   17.8682  -15.3593 C   0  0  0  0  0  0
  -15.1929   17.3664  -17.4355 C   0  0  0  0  0  0
  -14.4301   16.5898  -16.4014 C   0  0  0  0  0  0
  -15.9282   16.4093  -18.4585 C   0  0  0  0  0  0
  -14.2664   18.2979  -18.2950 C   0  0  0  0  0  0
  -21.9980   16.2875  -12.2716 H   0  0  0  0  0  0
  1  2  1  0  0  0
  2  3  1  0  0  0
  2  4  1  0  0  0
  4  5  1  0  0  0
  5  6  1  0  0  0
  6  7  1  0  0  0
  7  8  1  0  0  0
  7 12  1  0  0  0
  8  9  1  0  0  0
  8 22  1  0  0  0
  9 10  2  0  0  0
  9 14  1  0  0  0
 10 11  1  0  0  0
 10 12  1  0  0  0
 11 32  1  0  0  0
 12 13  2  0  0  0
 14 15  2  0  0  0
 14 16  1  0  0  0
 16 17  2  0  0  0
 16 21  1  0  0  0
 17 18  1  0  0  0
 18 19  2  0  0  0
 19 20  1  0  0  0
 20 21  2  0  0  0
 22 23  2  0  0  0
 22 27  1  0  0  0
 23 24  1  0  0  0
 24 25  2  0  0  0
 25 26  1  0  0  0
 25 28  1  0  0  0
 26 27  2  0  0  0
 28 29  1  0  0  0
 28 30  1  0  0  0
 28 31  1  0  0  0
M  END
>  <CHROM.0>
-63.24996214,-70.44721687,-8.67437231,66.97623710,24.40025309,-59.12249387
-175.58581069,-157.77015180

>  <CHROM.1>
114.02144592,-166.42360774,-64.75337898,68.54971245,-93.33642673,92.03250939
-164.11611308,163.83987220,108.16236479,-20.38658714,19.25965661,-14.91709129
-2.58589378,0.19906827,-2.10460965

>  <Name>
F3226-2220

>  <RI>
2.3538e+07

>  <Rbt.Current_Directory>
/home/adria/Escritorio/rDock_CMTR_LC/2pxcA_model/inputs_sah

>  <Rbt.Executable>
rbdock ($Id: //depot/dev/client3/rdock/2013.1/src/exe/rbdock.cxx#4 $)

>  <Rbt.Library>
libRbt.so (2013.1, Build901 2013/11/27)

>  <Rbt.Parameter_File>
/home/adria/Escritorio/rDock_2013.1_src/data/scripts/dock.prm

>  <Rbt.Receptor>
sah_rdock.prm

>  <SCORE>
-62.1985

>  <SCORE.INTER>
-14.3147

>  <SCORE.INTER.CONST>
1

>  <SCORE.INTER.POLAR>
-0.906928

>  <SCORE.INTER.REPUL>
0.316657

>  <SCORE.INTER.ROT>
8

>  <SCORE.INTER.VDW>
-26.2144

>  <SCORE.INTER.norm>
-0.461764

>  <SCORE.INTRA>
-53.329

>  <SCORE.INTRA.DIHEDRAL>
6.81965

>  <SCORE.INTRA.DIHEDRAL.0>
11.5155

>  <SCORE.INTRA.POLAR>
0

>  <SCORE.INTRA.POLAR.0>
0

>  <SCORE.INTRA.REPUL>
-0.169236

>  <SCORE.INTRA.REPUL.0>
0.169236

>  <SCORE.INTRA.VDW>
-55.8927

>  <SCORE.INTRA.VDW.0>
60.0108

>  <SCORE.INTRA.norm>
-1.72029

>  <SCORE.RESTR>
0

>  <SCORE.RESTR.CAVITY>
0

>  <SCORE.RESTR.norm>
0

>  <SCORE.SYSTEM>
5.44522

>  <SCORE.SYSTEM.CONST>
0

>  <SCORE.SYSTEM.DIHEDRAL>
9.6104

>  <SCORE.SYSTEM.POLAR>
-3.86964

>  <SCORE.SYSTEM.REPUL>
0.0336618

>  <SCORE.SYSTEM.VDW>
13.6285

>  <SCORE.SYSTEM.norm>
0.175652

>  <SCORE.heavy>
31

>  <SCORE.norm>
-2.0064

$$$$
F3226-2220
  rDOCK(R)          3D
libRbt.so/2013.1/901 2013/11/27
 32 34  0  0  0  0  0  0  0  0999 V2000
  -26.2608   23.3461   -7.3898 C   0  0  0  0  0  0
  -25.5339   23.1098   -8.7422 N   0  0  0  0  0  0
  -25.1100   24.0630  -10.0890 C   0  0  0  0  0  0
  -24.3403   22.3920   -8.4700 C   0  0  0  0  0  0
  -24.8304   21.0338   -8.8990 C   0  0  0  0  0  0
  -23.9116   20.3992  -10.1047 C   0  0  0  0  0  0
  -23.6354   21.1333  -11.5338 N   0  0  0  0  0  0
  -22.4701   22.1134  -12.0011 C   0  0  0  0  0  0
  -23.3648   23.1264  -12.7231 C   0  0  0  0  0  0
  -24.5452   22.6057  -13.0875 C   0  0  0  0  0  0
  -25.6013   23.1676  -13.7333 O   0  0  0  0  0  0
  -24.8306   21.3330  -12.3188 C   0  0  0  0  0  0
  -25.8424   20.8241  -12.2993 O   0  0  0  0  0  0
  -22.7253   24.4830  -12.7537 C   0  0  0  0  0  0
  -22.9394   25.2264  -13.7057 O   0  0  0  0  0  0
  -21.8510   25.0073  -11.7024 C   0  0  0  0  0  0
  -20.5345   24.6297  -11.4910 C   0  0  0  0  0  0
  -19.8450   25.2488  -10.4650 C   0  0  0  0  0  0
  -20.3625   26.2274   -9.6907 N   0  0  0  0  0  0
  -21.6234   26.6185   -9.9581 C   0  0  0  0  0  0
  -22.3999   26.0452  -10.9416 C   0  0  0  0  0  0
  -21.1563   21.6306  -13.0447 C   0  0  0  0  0  0
  -20.2456   22.3735  -13.7710 C   0  0  0  0  0  0
  -19.3460   21.7113  -14.7520 C   0  0  0  0  0  0
  -19.3549   20.3114  -15.0484 C   0  0  0  0  0  0
  -20.1896   19.6024  -14.3157 C   0  0  0  0  0  0
  -20.8916   20.2683  -13.3742 C   0  0  0  0  0  0
  -18.6130   19.3453  -15.9567 C   0  0  0  0  0  0
  -17.6533   20.1866  -16.7476 C   0  0  0  0  0  0
  -17.8578   18.2588  -15.0893 C   0  0  0  0  0  0
  -19.6175   18.5565  -16.8698 C   0  0  0  0  0  0
  -26.2873   22.5070  -13.7133 H   0  0  0  0  0  0
  1  2  1  0  0  0
  2  3  1  0  0  0
  2  4  1  0  0  0
  4  5  1  0  0  0
  5  6  1  0  0  0
  6  7  1  0  0  0
  7  8  1  0  0  0
  7 12  1  0  0  0
  8  9  1  0  0  0
  8 22  1  0  0  0
  9 10  2  0  0  0
  9 14  1  0  0  0
 10 11  1  0  0  0
 10 12  1  0  0  0
 11 32  1  0  0  0
 12 13  2  0  0  0
 14 15  2  0  0  0
 14 16  1  0  0  0
 16 17  2  0  0  0
 16 21  1  0  0  0
 17 18  1  0  0  0
 18 19  2  0  0  0
 19 20  1  0  0  0
 20 21  2  0  0  0
 22 23  2  0  0  0
 22 27  1  0  0  0
 23 24  1  0  0  0
 24 25  2  0  0  0
 25 26  1  0  0  0
 25 28  1  0  0  0
 26 27  2  0  0  0
 28 29  1  0  0  0
 28 30  1  0  0  0
 28 31  1  0  0  0
M  END
>  <CHROM.0>
-59.04022692,-166.11405889,-44.75005781,63.27802815,167.58648618,65.03285646
81.40397484,-170.86647505

>  <CHROM.1>
101.85018856,121.24710705,-56.44194117,91.42028953,164.14575100,148.31811585
-173.38866636,75.29213624,-2.02730007,-22.24630293,22.38041443,-12.28025751
2.35503086,0.51852478,0.51848190

>  <Name>
F3226-2220

>  <RI>
2.3538e+07

>  <Rbt.Current_Directory>
/home/adria/Escritorio/rDock_CMTR_LC/2pxcA_model/inputs_sah

>  <Rbt.Executable>
rbdock ($Id: //depot/dev/client3/rdock/2013.1/src/exe/rbdock.cxx#4 $)

>  <Rbt.Library>
libRbt.so (2013.1, Build901 2013/11/27)

>  <Rbt.Parameter_File>
/home/adria/Escritorio/rDock_2013.1_src/data/scripts/dock.prm

>  <Rbt.Receptor>
sah_rdock.prm

>  <SCORE>
-72.5525

>  <SCORE.INTER>
-19.4027

>  <SCORE.INTER.CONST>
1

>  <SCORE.INTER.POLAR>
-2.04348

>  <SCORE.INTER.REPUL>
0.00573616

>  <SCORE.INTER.ROT>
8

>  <SCORE.INTER.VDW>
-25.8836

>  <SCORE.INTER.norm>
-0.625895

>  <SCORE.INTRA>
-51.998

>  <SCORE.INTRA.DIHEDRAL>
14.1365

>  <SCORE.INTRA.DIHEDRAL.0>
11.5155

>  <SCORE.INTRA.POLAR>
0

>  <SCORE.INTRA.POLAR.0>
0

>  <SCORE.INTRA.REPUL>
-0.169236

>  <SCORE.INTRA.REPUL.0>
0.169236

>  <SCORE.INTRA.VDW>
-58.2201

>  <SCORE.INTRA.VDW.0>
60.0108

>  <SCORE.INTRA.norm>
-1.67736

>  <SCORE.RESTR>
0.0200901

>  <SCORE.RESTR.CAVITY>
0.0200901

>  <SCORE.RESTR.norm>
0.000648066

>  <SCORE.SYSTEM>
-1.17181

>  <SCORE.SYSTEM.CONST>
0

>  <SCORE.SYSTEM.DIHEDRAL>
3.44586

>  <SCORE.SYSTEM.POLAR>
-3.50007

>  <SCORE.SYSTEM.VDW>
9.0055

>  <SCORE.SYSTEM.norm>
-0.0378005

>  <SCORE.heavy>
31

>  <SCORE.norm>
-2.3404

$$$$
F3226-2220
  rDOCK(R)          3D
libRbt.so/2013.1/901 2013/11/27
 32 34  0  0  0  0  0  0  0  0999 V2000
  -27.1523   20.8428  -10.0035 C   0  0  0  0  0  0
  -27.1930   22.2775  -10.5977 N   0  0  0  0  0  0
  -27.6334   23.8248  -10.0368 C   0  0  0  0  0  0
  -25.9503   22.5125  -11.2416 C   0  0  0  0  0  0
  -26.3868   22.1560  -12.6385 C   0  0  0  0  0  0
  -25.4832   22.9177  -13.7803 C   0  0  0  0  0  0
  -23.9476   23.4169  -13.5553 N   0  0  0  0  0  0
  -22.8009   22.8784  -12.5901 C   0  0  0  0  0  0
  -22.3232   24.2478  -12.0957 C   0  0  0  0  0  0
  -22.6453   25.2416  -12.9358 C   0  0  0  0  0  0
  -22.4114   26.5786  -12.8596 O   0  0  0  0  0  0
  -23.7398   24.8066  -13.8872 C   0  0  0  0  0  0
  -24.3188   25.5215  -14.5480 O   0  0  0  0  0  0
  -21.6951   24.1402  -10.7377 C   0  0  0  0  0  0
  -20.5284   24.4881  -10.5865 O   0  0  0  0  0  0
  -22.3878   23.6499   -9.5443 C   0  0  0  0  0  0
  -22.2842   24.1963   -8.2749 C   0  0  0  0  0  0
  -23.0324   23.6212   -7.2646 C   0  0  0  0  0  0
  -23.8885   22.5928   -7.4510 N   0  0  0  0  0  0
  -24.0162   22.1215   -8.7063 C   0  0  0  0  0  0
  -23.2955   22.6104   -9.7741 C   0  0  0  0  0  0
  -21.4373   21.9343  -13.1356 C   0  0  0  0  0  0
  -20.1044   22.2612  -13.2948 C   0  0  0  0  0  0
  -19.1755   21.3221  -13.9771 C   0  0  0  0  0  0
  -19.5580   20.0615  -14.5358 C   0  0  0  0  0  0
  -20.8184   19.7339  -14.3351 C   0  0  0  0  0  0
  -21.5652   20.5964  -13.6132 C   0  0  0  0  0  0
  -18.8999   18.9081  -15.2744 C   0  0  0  0  0  0
  -19.4653   18.9405  -16.6649 C   0  0  0  0  0  0
  -17.3288   19.0949  -15.2792 C   0  0  0  0  0  0
  -19.1772   17.5473  -14.5421 C   0  0  0  0  0  0
  -21.9213   26.7015  -12.0522 H   0  0  0  0  0  0
  1  2  1  0  0  0
  2  3  1  0  0  0
  2  4  1  0  0  0
  4  5  1  0  0  0
  5  6  1  0  0  0
  6  7  1  0  0  0
  7  8  1  0  0  0
  7 12  1  0  0  0
  8  9  1  0  0  0
  8 22  1  0  0  0
  9 10  2  0  0  0
  9 14  1  0  0  0
 10 11  1  0  0  0
 10 12  1  0  0  0
 11 32  1  0  0  0
 12 13  2  0  0  0
 14 15  2  0  0  0
 14 16  1  0  0  0
 16 17  2  0  0  0
 16 21  1  0  0  0
 17 18  1  0  0  0
 18 19  2  0  0  0
 19 20  1  0  0  0
 20 21  2  0  0  0
 22 23  2  0  0  0
 22 27  1  0  0  0
 23 24  1  0  0  0
 24 25  2  0  0  0
 25 26  1  0  0  0
 25 28  1  0  0  0
 26 27  2  0  0  0
 28 29  1  0  0  0
 28 30  1  0  0  0
 28 31  1  0  0  0
M  END
>  <CHROM.0>
-60.14090743,68.07514367,66.90640885,65.28103211,29.18888203,-58.52022157
-41.92115621,-57.36155234

>  <CHROM.1>
96.37473256,153.89664822,26.48697926,27.14427164,106.49812258,120.58016708
1.40514556,-138.68676080,-112.06471306,-22.64549389,22.43476934,-12.20235263
2.35088994,-0.19931736,1.09614610

>  <Name>
F3226-2220

>  <RI>
2.3538e+07

>  <Rbt.Current_Directory>
/home/adria/Escritorio/rDock_CMTR_LC/2pxcA_model/inputs_sah

>  <Rbt.Executable>
rbdock ($Id: //depot/dev/client3/rdock/2013.1/src/exe/rbdock.cxx#4 $)

>  <Rbt.Library>
libRbt.so (2013.1, Build901 2013/11/27)

>  <Rbt.Parameter_File>
/home/adria/Escritorio/rDock_2013.1_src/data/scripts/dock.prm

>  <Rbt.Receptor>
sah_rdock.prm

>  <SCORE>
-48.3343

>  <SCORE.INTER>
-6.35497

>  <SCORE.INTER.CONST>
1

>  <SCORE.INTER.POLAR>
-2.05

>  <SCORE.INTER.REPUL>
0.126937

>  <SCORE.INTER.ROT>
8

>  <SCORE.INTER.VDW>
-13.4197

>  <SCORE.INTER.norm>
-0.204999

>  <SCORE.INTRA>
-49.6488

>  <SCORE.INTRA.DIHEDRAL>
14.1696

>  <SCORE.INTRA.DIHEDRAL.0>
11.5155

>  <SCORE.INTRA.POLAR>
0

>  <SCORE.INTRA.POLAR.0>
0

>  <SCORE.INTRA.REPUL>
-0.169236

>  <SCORE.INTRA.REPUL.0>
0.169236

>  <SCORE.INTRA.VDW>
-55.8874

>  <SCORE.INTRA.VDW.0>
60.0108

>  <SCORE.INTRA.norm>
-1.60157

>  <SCORE.RESTR>
0.257094

>  <SCORE.RESTR.CAVITY>
0.257094

>  <SCORE.RESTR.norm>
0.00829334

>  <SCORE.SYSTEM>
7.41237

>  <SCORE.SYSTEM.CONST>
0

>  <SCORE.SYSTEM.DIHEDRAL>
8.47841

>  <SCORE.SYSTEM.POLAR>
-2.8209

>  <SCORE.SYSTEM.VDW>
12.7642

>  <SCORE.SYSTEM.norm>
0.239109

>  <SCORE.heavy>
31

>  <SCORE.norm>
-1.55917

$$$$
F3226-2220
  rDOCK(R)          3D
libRbt.so/2013.1/901 2013/11/27
 32 34  0  0  0  0  0  0  0  0999 V2000
  -24.2392   23.7374  -10.7041 C   0  0  0  0  0  0
  -22.9980   23.9509  -11.6135 N   0  0  0  0  0  0
  -22.2054   25.2873  -12.3122 C   0  0  0  0  0  0
  -21.9285   23.1945  -11.0673 C   0  0  0  0  0  0
  -21.8938   22.1203  -12.1226 C   0  0  0  0  0  0
  -20.7780   20.9616  -11.7867 C   0  0  0  0  0  0
  -20.4682   19.6785  -12.7434 N   0  0  0  0  0  0
  -20.2746   19.5692  -14.3205 C   0  0  0  0  0  0
  -21.1386   18.3200  -14.5223 C   0  0  0  0  0  0
  -21.2725   17.5976  -13.4010 C   0  0  0  0  0  0
  -21.9517   16.4439  -13.1646 O   0  0  0  0  0  0
  -20.9117   18.4234  -12.1844 C   0  0  0  0  0  0
  -21.1368   18.1064  -11.1204 O   0  0  0  0  0  0
  -21.7000   18.2732  -15.9127 C   0  0  0  0  0  0
  -21.1156   17.6249  -16.7747 O   0  0  0  0  0  0
  -22.9300   18.9498  -16.3294 C   0  0  0  0  0  0
  -23.2820   19.2409  -17.6378 C   0  0  0  0  0  0
  -24.4980   19.8625  -17.8532 C   0  0  0  0  0  0
  -25.3782   20.1593  -16.8722 N   0  0  0  0  0  0
  -25.0380   19.8093  -15.6168 C   0  0  0  0  0  0
  -23.8387   19.2102  -15.2980 C   0  0  0  0  0  0
  -18.7250   19.3518  -15.0952 C   0  0  0  0  0  0
  -17.8770   20.2517  -15.7114 C   0  0  0  0  0  0
  -16.6991   19.7706  -16.4804 C   0  0  0  0  0  0
  -16.3609   18.3938  -16.6740 C   0  0  0  0  0  0
  -17.1441   17.5438  -16.0413 C   0  0  0  0  0  0
  -18.1258   18.0705  -15.2788 C   0  0  0  0  0  0
  -15.2836   17.5842  -17.3761 C   0  0  0  0  0  0
  -15.9947   16.7951  -18.4372 C   0  0  0  0  0  0
  -14.1984   18.5528  -17.9986 C   0  0  0  0  0  0
  -14.5198   16.6692  -16.3542 C   0  0  0  0  0  0
  -21.9261   16.3275  -12.2195 H   0  0  0  0  0  0
  1  2  1  0  0  0
  2  3  1  0  0  0
  2  4  1  0  0  0
  4  5  1  0  0  0
  5  6  1  0  0  0
  6  7  1  0  0  0
  7  8  1  0  0  0
  7 12  1  0  0  0
  8  9  1  0  0  0
  8 22  1  0  0  0
  9 10  2  0  0  0
  9 14  1  0  0  0
 10 11  1  0  0  0
 10 12  1  0  0  0
 11 32  1  0  0  0
 12 13  2  0  0  0
 14 15  2  0  0  0
 14 16  1  0  0  0
 16 17  2  0  0  0
 16 21  1  0  0  0
 17 18  1  0  0  0
 18 19  2  0  0  0
 19 20  1  0  0  0
 20 21  2  0  0  0
 22 23  2  0  0  0
 22 27  1  0  0  0
 23 24  1  0  0  0
 24 25  2  0  0  0
 25 26  1  0  0  0
 25 28  1  0  0  0
 26 27  2  0  0  0
 28 29  1  0  0  0
 28 30  1  0  0  0
 28 31  1  0  0  0
M  END
>  <CHROM.0>
-60.24944711,64.97280932,109.89119314,67.35487522,25.67340459,-64.57876956
52.26679023,-161.70940045

>  <CHROM.1>
107.98333920,-177.13824497,-178.64757493,44.58853139,-99.59465223,95.58456526
-170.75400642,161.09863982,-116.56821823,-20.45726158,19.48665883,-14.74163853
-2.45153814,0.09402416,-2.24204239

>  <Name>
F3226-2220

>  <RI>
2.3538e+07

>  <Rbt.Current_Directory>
/home/adria/Escritorio/rDock_CMTR_LC/2pxcA_model/inputs_sah

>  <Rbt.Executable>
rbdock ($Id: //depot/dev/client3/rdock/2013.1/src/exe/rbdock.cxx#4 $)

>  <Rbt.Library>
libRbt.so (2013.1, Build901 2013/11/27)

>  <Rbt.Parameter_File>
/home/adria/Escritorio/rDock_2013.1_src/data/scripts/dock.prm

>  <Rbt.Receptor>
sah_rdock.prm

>  <SCORE>
-61.0107

>  <SCORE.INTER>
-14.4557

>  <SCORE.INTER.CONST>
1

>  <SCORE.INTER.POLAR>
-0.881145

>  <SCORE.INTER.REPUL>
0.301374

>  <SCORE.INTER.ROT>
8

>  <SCORE.INTER.VDW>
-26.3667

>  <SCORE.INTER.norm>
-0.466312

>  <SCORE.INTRA>
-52.9938

>  <SCORE.INTRA.DIHEDRAL>
7.00513

>  <SCORE.INTRA.DIHEDRAL.0>
11.5155

>  <SCORE.INTRA.POLAR>
0

>  <SCORE.INTRA.POLAR.0>
0

>  <SCORE.INTRA.REPUL>
-0.169236

>  <SCORE.INTRA.REPUL.0>
0.169236

>  <SCORE.INTRA.VDW>
-55.6502

>  <SCORE.INTRA.VDW.0>
60.0108

>  <SCORE.INTRA.norm>
-1.70948

>  <SCORE.RESTR>
0

>  <SCORE.RESTR.CAVITY>
0

>  <SCORE.RESTR.norm>
0

>  <SCORE.SYSTEM>
6.43881

>  <SCORE.SYSTEM.CONST>
0

>  <SCORE.SYSTEM.DIHEDRAL>
8.81835

>  <SCORE.SYSTEM.POLAR>
-3.39089

>  <SCORE.SYSTEM.VDW>
13.5587

>  <SCORE.SYSTEM.norm>
0.207704

>  <SCORE.heavy>
31

>  <SCORE.norm>
-1.96809

$$$$
F3226-2220
  rDOCK(R)          3D
libRbt.so/2013.1/901 2013/11/27
 32 34  0  0  0  0  0  0  0  0999 V2000
  -21.9425   24.5334  -10.1112 C   0  0  0  0  0  0
  -21.9290   23.9907  -11.5667 N   0  0  0  0  0  0
  -22.7244   24.3712  -13.0244 C   0  0  0  0  0  0
  -20.5732   23.8627  -11.9661 C   0  0  0  0  0  0
  -20.4405   22.3818  -11.7248 C   0  0  0  0  0  0
  -21.0918   21.4970  -12.9469 C   0  0  0  0  0  0
  -21.1634   19.8684  -12.9660 N   0  0  0  0  0  0
  -21.4179   18.8442  -14.1588 C   0  0  0  0  0  0
  -22.4054   17.9404  -13.4132 C   0  0  0  0  0  0
  -22.2875   18.0346  -12.0811 C   0  0  0  0  0  0
  -22.9701   17.4120  -11.0838 O   0  0  0  0  0  0
  -21.5404   19.2940  -11.6962 C   0  0  0  0  0  0
  -21.4918   19.6975  -10.6389 O   0  0  0  0  0  0
  -23.3272   17.2454  -14.3711 C   0  0  0  0  0  0
  -23.6620   16.0864  -14.1482 O   0  0  0  0  0  0
  -23.8822   17.8625  -15.5776 C   0  0  0  0  0  0
  -23.5695   19.1280  -16.0481 C   0  0  0  0  0  0
  -24.1689   19.5432  -17.2227 C   0  0  0  0  0  0
  -25.0010   18.7742  -17.9584 N   0  0  0  0  0  0
  -25.2389   17.5263  -17.5105 C   0  0  0  0  0  0
  -24.7098   17.0302  -16.3388 C   0  0  0  0  0  0
  -20.1628   17.8766  -14.8915 C   0  0  0  0  0  0
  -19.7043   16.6052  -14.6050 C   0  0  0  0  0  0
  -18.4725   16.0852  -15.2548 C   0  0  0  0  0  0
  -17.6627   16.8252  -16.1736 C   0  0  0  0  0  0
  -18.1337   18.0168  -16.4810 C   0  0  0  0  0  0
  -19.3141   18.3674  -15.9274 C   0  0  0  0  0  0
  -16.3941   16.6145  -16.9830 C   0  0  0  0  0  0
  -15.3983   17.5992  -16.4418 C   0  0  0  0  0  0
  -15.8888   15.1242  -16.8186 C   0  0  0  0  0  0
  -16.6709   16.8169  -18.5151 C   0  0  0  0  0  0
  -23.5179   16.7666  -11.5204 H   0  0  0  0  0  0
  1  2  1  0  0  0
  2  3  1  0  0  0
  2  4  1  0  0  0
  4  5  1  0  0  0
  5  6  1  0  0  0
  6  7  1  0  0  0
  7  8  1  0  0  0
  7 12  1  0  0  0
  8  9  1  0  0  0
  8 22  1  0  0  0
  9 10  2  0  0  0
  9 14  1  0  0  0
 10 11  1  0  0  0
 10 12  1  0  0  0
 11 32  1  0  0  0
 12 13  2  0  0  0
 14 15  2  0  0  0
 14 16  1  0  0  0
 16 17  2  0  0  0
 16 21  1  0  0  0
 17 18  1  0  0  0
 18 19  2  0  0  0
 19 20  1  0  0  0
 20 21  2  0  0  0
 22 23  2  0  0  0
 22 27  1  0  0  0
 23 24  1  0  0  0
 24 25  2  0  0  0
 25 26  1  0  0  0
 25 28  1  0  0  0
 26 27  2  0  0  0
 28 29  1  0  0  0
 28 30  1  0  0  0
 28 31  1  0  0  0
M  END
>  <CHROM.0>
-60.34837791,-165.85694831,-42.03787074,66.94108076,-30.64242212,61.38069310
-157.27498039,-161.30953558

>  <CHROM.1>
99.46119450,79.42629936,-177.54446967,-163.25418631,91.44874518,142.52409694
7.27695770,4.51870597,-115.94369960,-21.06593342,18.91976094,-14.40723474
-2.10591812,0.00329878,-2.43165023

>  <Name>
F3226-2220

>  <RI>
2.3538e+07

>  <Rbt.Current_Directory>
/home/adria/Escritorio/rDock_CMTR_LC/2pxcA_model/inputs_sah

>  <Rbt.Executable>
rbdock ($Id: //depot/dev/client3/rdock/2013.1/src/exe/rbdock.cxx#4 $)

>  <Rbt.Library>
libRbt.so (2013.1, Build901 2013/11/27)

>  <Rbt.Parameter_File>
/home/adria/Escritorio/rDock_2013.1_src/data/scripts/dock.prm

>  <Rbt.Receptor>
sah_rdock.prm

>  <SCORE>
-68.7893

>  <SCORE.INTER>
-7.60941

>  <SCORE.INTER.CONST>
1

>  <SCORE.INTER.POLAR>
-0.0236788

>  <SCORE.INTER.REPUL>
0.0313917

>  <SCORE.INTER.ROT>
8

>  <SCORE.INTER.VDW>
-21.0859

>  <SCORE.INTER.norm>
-0.245465

>  <SCORE.INTRA>
-54.8746

>  <SCORE.INTRA.DIHEDRAL>
-0.693765

>  <SCORE.INTRA.DIHEDRAL.0>
11.5155

>  <SCORE.INTRA.POLAR>
0

>  <SCORE.INTRA.POLAR.0>
0

>  <SCORE.INTRA.REPUL>
-0.169236

>  <SCORE.INTRA.REPUL.0>
0.169236

>  <SCORE.INTRA.VDW>
-53.6816

>  <SCORE.INTRA.VDW.0>
60.0108

>  <SCORE.INTRA.norm>
-1.77015

>  <SCORE.RESTR>
0

>  <SCORE.RESTR.CAVITY>
0

>  <SCORE.RESTR.norm>
0

>  <SCORE.SYSTEM>
-6.30525

>  <SCORE.SYSTEM.CONST>
0

>  <SCORE.SYSTEM.DIHEDRAL>
7.0252

>  <SCORE.SYSTEM.POLAR>
-3.74083

>  <SCORE.SYSTEM.VDW>
2.90099

>  <SCORE.SYSTEM.norm>
-0.203395

>  <SCORE.heavy>
31

>  <SCORE.norm>
-2.21901

$$$$
F3226-2220
  rDOCK(R)          3D
libRbt.so/2013.1/901 2013/11/27
 32 34  0  0  0  0  0  0  0  0999 V2000
  -26.3686   24.1806   -9.6551 C   0  0  0  0  0  0
  -25.2721   23.1466   -9.2786 N   0  0  0  0  0  0
  -23.6602   23.2133   -8.7312 C   0  0  0  0  0  0
  -25.8632   22.1866   -8.4165 C   0  0  0  0  0  0
  -26.2496   21.1883   -9.4762 C   0  0  0  0  0  0
  -24.9480   20.3694  -10.0559 C   0  0  0  0  0  0
  -23.9292   20.9464  -11.1901 N   0  0  0  0  0  0
  -22.3414   20.8884  -11.3002 C   0  0  0  0  0  0
  -22.1361   22.3474  -11.7209 C   0  0  0  0  0  0
  -23.2346   22.8869  -12.2680 C   0  0  0  0  0  0
  -23.4611   24.1352  -12.7565 O   0  0  0  0  0  0
  -24.4620   22.0696  -11.9245 C   0  0  0  0  0  0
  -25.5231   22.4271  -12.0955 O   0  0  0  0  0  0
  -20.7749   22.8358  -11.3221 C   0  0  0  0  0  0
  -19.8214   22.0658  -11.3749 O   0  0  0  0  0  0
  -20.4860   24.1995  -10.8735 C   0  0  0  0  0  0
  -19.2225   24.7121  -10.6256 C   0  0  0  0  0  0
  -19.1309   26.0344  -10.2325 C   0  0  0  0  0  0
  -20.1915   26.8638  -10.1211 N   0  0  0  0  0  0
  -21.4011   26.3569  -10.4280 C   0  0  0  0  0  0
  -21.5978   25.0459  -10.8040 C   0  0  0  0  0  0
  -21.4822   19.8289  -12.3900 C   0  0  0  0  0  0
  -20.5125   18.8721  -12.1597 C   0  0  0  0  0  0
  -19.7887   18.2453  -13.2969 C   0  0  0  0  0  0
  -19.9937   18.5766  -14.6738 C   0  0  0  0  0  0
  -20.9550   19.4517  -14.8886 C   0  0  0  0  0  0
  -21.6334   19.8903  -13.8070 C   0  0  0  0  0  0
  -19.4483   18.1575  -16.0287 C   0  0  0  0  0  0
  -18.3681   17.1556  -15.7399 C   0  0  0  0  0  0
  -20.6053   17.5306  -16.9072 C   0  0  0  0  0  0
  -18.9189   19.4026  -16.8252 C   0  0  0  0  0  0
  -24.3969   24.1700  -12.9305 H   0  0  0  0  0  0
  1  2  1  0  0  0
  2  3  1  0  0  0
  2  4  1  0  0  0
  4  5  1  0  0  0
  5  6  1  0  0  0
  6  7  1  0  0  0
  7  8  1  0  0  0
  7 12  1  0  0  0
  8  9  1  0  0  0
  8 22  1  0  0  0
  9 10  2  0  0  0
  9 14  1  0  0  0
 10 11  1  0  0  0
 10 12  1  0  0  0
 11 32  1  0  0  0
 12 13  2  0  0  0
 14 15  2  0  0  0
 14 16  1  0  0  0
 16 17  2  0  0  0
 16 21  1  0  0  0
 17 18  1  0  0  0
 18 19  2  0  0  0
 19 20  1  0  0  0
 20 21  2  0  0  0
 22 23  2  0  0  0
 22 27  1  0  0  0
 23 24  1  0  0  0
 24 25  2  0  0  0
 25 26  1  0  0  0
 25 28  1  0  0  0
 26 27  2  0  0  0
 28 29  1  0  0  0
 28 30  1  0  0  0
 28 31  1  0  0  0
M  END
>  <CHROM.0>
-64.24053898,-75.59843519,-11.89570779,-63.64899020,168.15031715,57.04057490
83.15139867,-159.88263928

>  <CHROM.1>
93.08202023,73.89661991,-81.20034289,137.84501623,-123.68651876,36.15586434
-171.41059227,-173.30353690,-2.86351039,-22.05279703,21.79179077,-11.97750605
2.09029545,0.40001413,0.55339244

>  <Name>
F3226-2220

>  <RI>
2.3538e+07

>  <Rbt.Current_Directory>
/home/adria/Escritorio/rDock_CMTR_LC/2pxcA_model/inputs_sah

>  <Rbt.Executable>
rbdock ($Id: //depot/dev/client3/rdock/2013.1/src/exe/rbdock.cxx#4 $)

>  <Rbt.Library>
libRbt.so (2013.1, Build901 2013/11/27)

>  <Rbt.Parameter_File>
/home/adria/Escritorio/rDock_2013.1_src/data/scripts/dock.prm

>  <Rbt.Receptor>
sah_rdock.prm

>  <SCORE>
-72.0407

>  <SCORE.INTER>
-12.66

>  <SCORE.INTER.CONST>
1

>  <SCORE.INTER.POLAR>
-0.938083

>  <SCORE.INTER.REPUL>
0

>  <SCORE.INTER.ROT>
8

>  <SCORE.INTER.VDW>
-22.8705

>  <SCORE.INTER.norm>
-0.408386

>  <SCORE.INTRA>
-57.1957

>  <SCORE.INTRA.DIHEDRAL>
0.141767

>  <SCORE.INTRA.DIHEDRAL.0>
11.5155

>  <SCORE.INTRA.POLAR>
0

>  <SCORE.INTRA.POLAR.0>
0

>  <SCORE.INTRA.REPUL>
-0.169236

>  <SCORE.INTRA.REPUL.0>
0.169236

>  <SCORE.INTRA.VDW>
-56.4204

>  <SCORE.INTRA.VDW.0>
60.0108

>  <SCORE.INTRA.norm>
-1.84502

>  <SCORE.RESTR>
0

>  <SCORE.RESTR.CAVITY>
0

>  <SCORE.RESTR.norm>
0

>  <SCORE.SYSTEM>
-2.18503

>  <SCORE.SYSTEM.CONST>
0

>  <SCORE.SYSTEM.DIHEDRAL>
6.98007

>  <SCORE.SYSTEM.POLAR>
-4.5168

>  <SCORE.SYSTEM.REPUL>
0.0428419

>  <SCORE.SYSTEM.VDW>
9.46784

>  <SCORE.SYSTEM.norm>
-0.0704847

>  <SCORE.heavy>
31

>  <SCORE.norm>
-2.32389

$$$$
F3226-2220
  rDOCK(R)          3D
libRbt.so/2013.1/901 2013/11/27
 32 34  0  0  0  0  0  0  0  0999 V2000
  -18.8045   25.5893  -10.3294 C   0  0  0  0  0  0
  -20.3092   25.2881  -10.0882 N   0  0  0  0  0  0
  -21.6172   26.0914   -9.3491 C   0  0  0  0  0  0
  -20.8614   24.8411  -11.3168 C   0  0  0  0  0  0
  -20.8490   23.3668  -11.0083 C   0  0  0  0  0  0
  -21.3899   22.4676  -12.2729 C   0  0  0  0  0  0
  -20.9922   20.9074  -12.5284 N   0  0  0  0  0  0
  -20.9223   20.0491  -13.8682 C   0  0  0  0  0  0
  -21.6226   18.8013  -13.3201 C   0  0  0  0  0  0
  -21.5596   18.7186  -11.9835 C   0  0  0  0  0  0
  -22.0525   17.7839  -11.1282 O   0  0  0  0  0  0
  -21.2108   20.0620  -11.3786 C   0  0  0  0  0  0
  -21.2980   20.2952  -10.2736 O   0  0  0  0  0  0
  -22.2903   18.0318  -14.4212 C   0  0  0  0  0  0
  -22.4191   16.8168  -14.3119 O   0  0  0  0  0  0
  -22.8245   18.6355  -15.6437 C   0  0  0  0  0  0
  -24.0263   19.3185  -15.7425 C   0  0  0  0  0  0
  -24.3647   19.8493  -16.9734 C   0  0  0  0  0  0
  -23.5752   19.7810  -18.0676 N   0  0  0  0  0  0
  -22.3852   19.1657  -17.9276 C   0  0  0  0  0  0
  -21.9697   18.5832  -16.7500 C   0  0  0  0  0  0
  -19.4304   19.5967  -14.6542 C   0  0  0  0  0  0
  -18.3681   20.3562  -15.1053 C   0  0  0  0  0  0
  -17.2987   19.7381  -15.9327 C   0  0  0  0  0  0
  -17.2805   18.3690  -16.3486 C   0  0  0  0  0  0
  -18.2690   17.6394  -15.8724 C   0  0  0  0  0  0
  -19.1369   18.2558  -15.0420 C   0  0  0  0  0  0
  -16.3883   17.4494  -17.1653 C   0  0  0  0  0  0
  -15.2643   18.3109  -17.6639 C   0  0  0  0  0  0
  -15.8579   16.2656  -16.2594 C   0  0  0  0  0  0
  -17.1980   16.7796  -18.3318 C   0  0  0  0  0  0
  -22.2333   17.0206  -11.6686 H   0  0  0  0  0  0
  1  2  1  0  0  0
  2  3  1  0  0  0
  2  4  1  0  0  0
  4  5  1  0  0  0
  5  6  1  0  0  0
  6  7  1  0  0  0
  7  8  1  0  0  0
  7 12  1  0  0  0
  8  9  1  0  0  0
  8 22  1  0  0  0
  9 10  2  0  0  0
  9 14  1  0  0  0
 10 11  1  0  0  0
 10 12  1  0  0  0
 11 32  1  0  0  0
 12 13  2  0  0  0
 14 15  2  0  0  0
 14 16  1  0  0  0
 16 17  2  0  0  0
 16 21  1  0  0  0
 17 18  1  0  0  0
 18 19  2  0  0  0
 19 20  1  0  0  0
 20 21  2  0  0  0
 22 23  2  0  0  0
 22 27  1  0  0  0
 23 24  1  0  0  0
 24 25  2  0  0  0
 25 26  1  0  0  0
 25 28  1  0  0  0
 26 27  2  0  0  0
 28 29  1  0  0  0
 28 30  1  0  0  0
 28 31  1  0  0  0
M  END
>  <CHROM.0>
-60.50439332,-166.05368051,111.80997680,149.90573397,29.61148749,-178.41491417
-161.30285190,-162.84638571

>  <CHROM.1>
100.66340388,-177.83943216,155.22468003,-153.55332667,-55.22674751,150.85102988
17.65230468,-77.92682905,-2.20171227,-20.37046934,19.94922362,-14.14947523
-1.84407235,-0.09176193,-2.36394330

>  <Name>
F3226-2220

>  <RI>
2.3538e+07

>  <Rbt.Current_Directory>
/home/adria/Escritorio/rDock_CMTR_LC/2pxcA_model/inputs_sah

>  <Rbt.Executable>
rbdock ($Id: //depot/dev/client3/rdock/2013.1/src/exe/rbdock.cxx#4 $)

>  <Rbt.Library>
libRbt.so (2013.1, Build901 2013/11/27)

>  <Rbt.Parameter_File>
/home/adria/Escritorio/rDock_2013.1_src/data/scripts/dock.prm

>  <Rbt.Receptor>
sah_rdock.prm

>  <SCORE>
-56.9449

>  <SCORE.INTER>
-13.6129

>  <SCORE.INTER.CONST>
1

>  <SCORE.INTER.POLAR>
-0.661087

>  <SCORE.INTER.REPUL>
0.376494

>  <SCORE.INTER.ROT>
8

>  <SCORE.INTER.VDW>
-26.6477

>  <SCORE.INTER.norm>
-0.439127

>  <SCORE.INTRA>
-52.3674

>  <SCORE.INTRA.DIHEDRAL>
11.336

>  <SCORE.INTRA.DIHEDRAL.0>
11.5155

>  <SCORE.INTRA.POLAR>
0

>  <SCORE.INTRA.POLAR.0>
0

>  <SCORE.INTRA.REPUL>
-0.169236

>  <SCORE.INTRA.REPUL.0>
0.169236

>  <SCORE.INTRA.VDW>
-57.1892

>  <SCORE.INTRA.VDW.0>
60.0108

>  <SCORE.INTRA.norm>
-1.68927

>  <SCORE.RESTR>
0

>  <SCORE.RESTR.CAVITY>
0

>  <SCORE.RESTR.norm>
0

>  <SCORE.SYSTEM>
9.03546

>  <SCORE.SYSTEM.CONST>
0

>  <SCORE.SYSTEM.DIHEDRAL>
12.867

>  <SCORE.SYSTEM.POLAR>
-3.95265

>  <SCORE.SYSTEM.VDW>
16.041

>  <SCORE.SYSTEM.norm>
0.291467

>  <SCORE.heavy>
31

>  <SCORE.norm>
-1.83693

$$$$
F3226-2220
  rDOCK(R)          3D
libRbt.so/2013.1/901 2013/11/27
 32 34  0  0  0  0  0  0  0  0999 V2000
  -15.2172   14.0002  -18.3604 C   0  0  0  0  0  0
  -16.7606   13.8300  -18.4029 N   0  0  0  0  0  0
  -17.8500   12.6716  -19.0143 C   0  0  0  0  0  0
  -17.2575   14.0784  -17.0970 C   0  0  0  0  0  0
  -17.9590   15.3761  -17.4014 C   0  0  0  0  0  0
  -18.5955   16.0645  -16.0518 C   0  0  0  0  0  0
  -19.2881   17.5398  -16.0114 N   0  0  0  0  0  0
  -20.7813   17.9884  -15.6863 C   0  0  0  0  0  0
  -20.9240   18.9889  -16.8380 C   0  0  0  0  0  0
  -19.7410   19.4296  -17.2892 C   0  0  0  0  0  0
  -19.4416   20.3050  -18.2853 O   0  0  0  0  0  0
  -18.6217   18.5114  -16.8459 C   0  0  0  0  0  0
  -17.5701   18.5551  -17.2645 O   0  0  0  0  0  0
  -22.3614   19.1495  -17.2360 C   0  0  0  0  0  0
  -22.6466   19.8934  -18.1689 O   0  0  0  0  0  0
  -23.4793   18.4606  -16.5878 C   0  0  0  0  0  0
  -24.6846   19.0450  -16.2325 C   0  0  0  0  0  0
  -25.6439   18.2370  -15.6508 C   0  0  0  0  0  0
  -25.4929   16.9093  -15.4519 N   0  0  0  0  0  0
  -24.3359   16.3555  -15.8632 C   0  0  0  0  0  0
  -23.3102   17.0809  -16.4294 C   0  0  0  0  0  0
  -21.2646   18.7371  -14.1849 C   0  0  0  0  0  0
  -20.5235   19.2059  -13.1173 C   0  0  0  0  0  0
  -21.1964   19.6176  -11.8571 C   0  0  0  0  0  0
  -22.6066   19.5439  -11.6261 C   0  0  0  0  0  0
  -23.3112   19.1446  -12.6654 C   0  0  0  0  0  0
  -22.6301   18.8933  -13.8037 C   0  0  0  0  0  0
  -23.5849   19.8592  -10.5069 C   0  0  0  0  0  0
  -24.4009   21.0209  -10.9956 C   0  0  0  0  0  0
  -24.4894   18.5962  -10.2073 C   0  0  0  0  0  0
  -22.8209   20.1776   -9.1728 C   0  0  0  0  0  0
  -18.4976   20.2438  -18.3970 H   0  0  0  0  0  0
  1  2  1  0  0  0
  2  3  1  0  0  0
  2  4  1  0  0  0
  4  5  1  0  0  0
  5  6  1  0  0  0
  6  7  1  0  0  0
  7  8  1  0  0  0
  7 12  1  0  0  0
  8  9  1  0  0  0
  8 22  1  0  0  0
  9 10  2  0  0  0
  9 14  1  0  0  0
 10 11  1  0  0  0
 10 12  1  0  0  0
 11 32  1  0  0  0
 12 13  2  0  0  0
 14 15  2  0  0  0
 14 16  1  0  0  0
 16 17  2  0  0  0
 16 21  1  0  0  0
 17 18  1  0  0  0
 18 19  2  0  0  0
 19 20  1  0  0  0
 20 21  2  0  0  0
 22 23  2  0  0  0
 22 27  1  0  0  0
 23 24  1  0  0  0
 24 25  2  0  0  0
 25 26  1  0  0  0
 25 28  1  0  0  0
 26 27  2  0  0  0
 28 29  1  0  0  0
 28 30  1  0  0  0
 28 31  1  0  0  0
M  END
>  <CHROM.0>
-58.49859725,-171.41454441,-129.95524363,60.13604373,168.33771138,-59.21010144
-156.73515312,-162.33239516

>  <CHROM.1>
110.76630260,-175.68428032,173.71583018,116.51084360,8.02132995,-178.24468266
-170.64020170,135.96135985,112.06950258,-21.17359815,17.94498715,-15.34452685
-0.78994610,-0.36962076,1.29949434

>  <Name>
F3226-2220

>  <RI>
2.3538e+07

>  <Rbt.Current_Directory>
/home/adria/Escritorio/rDock_CMTR_LC/2pxcA_model/inputs_sah

>  <Rbt.Executable>
rbdock ($Id: //depot/dev/client3/rdock/2013.1/src/exe/rbdock.cxx#4 $)

>  <Rbt.Library>
libRbt.so (2013.1, Build901 2013/11/27)

>  <Rbt.Parameter_File>
/home/adria/Escritorio/rDock_2013.1_src/data/scripts/dock.prm

>  <Rbt.Receptor>
sah_rdock.prm

>  <SCORE>
-59.4597

>  <SCORE.INTER>
-3.95702

>  <SCORE.INTER.CONST>
1

>  <SCORE.INTER.POLAR>
-0.353202

>  <SCORE.INTER.REPUL>
0.120558

>  <SCORE.INTER.ROT>
8

>  <SCORE.INTER.VDW>
-16.7589

>  <SCORE.INTER.norm>
-0.127646

>  <SCORE.INTRA>
-54.3981

>  <SCORE.INTRA.DIHEDRAL>
1.20422

>  <SCORE.INTRA.DIHEDRAL.0>
11.5155

>  <SCORE.INTRA.POLAR>
0

>  <SCORE.INTRA.POLAR.0>
0

>  <SCORE.INTRA.REPUL>
-0.169236

>  <SCORE.INTRA.REPUL.0>
0.169236

>  <SCORE.INTRA.VDW>
-54.1541

>  <SCORE.INTRA.VDW.0>
60.0108

>  <SCORE.INTRA.norm>
-1.75478

>  <SCORE.RESTR>
0.0282315

>  <SCORE.RESTR.CAVITY>
0.0282315

>  <SCORE.RESTR.norm>
0.000910694

>  <SCORE.SYSTEM>
-1.13281

>  <SCORE.SYSTEM.CONST>
0

>  <SCORE.SYSTEM.DIHEDRAL>
6.00258

>  <SCORE.SYSTEM.POLAR>
-4.17953

>  <SCORE.SYSTEM.VDW>
10.0763

>  <SCORE.SYSTEM.norm>
-0.0365422

>  <SCORE.heavy>
31

>  <SCORE.norm>
-1.91806

$$$$
F3226-2220
  rDOCK(R)          3D
libRbt.so/2013.1/901 2013/11/27
 32 34  0  0  0  0  0  0  0  0999 V2000
  -25.0127   17.4586  -17.5825 C   0  0  0  0  0  0
  -25.0915   18.9796  -17.2768 N   0  0  0  0  0  0
  -25.4174   20.3940  -18.1687 C   0  0  0  0  0  0
  -25.8877   19.1445  -16.1136 C   0  0  0  0  0  0
  -24.8168   19.7261  -15.2282 C   0  0  0  0  0  0
  -23.6367   18.6340  -14.8891 C   0  0  0  0  0  0
  -22.2207   19.0037  -14.1707 N   0  0  0  0  0  0
  -21.2106   20.2126  -14.4046 C   0  0  0  0  0  0
  -19.9245   19.3799  -14.3836 C   0  0  0  0  0  0
  -20.0760   18.2112  -13.7445 C   0  0  0  0  0  0
  -19.1920   17.2040  -13.5157 O   0  0  0  0  0  0
  -21.5423   17.8580  -13.6123 C   0  0  0  0  0  0
  -21.9166   16.8366  -13.2967 O   0  0  0  0  0  0
  -18.8385   20.0475  -15.1744 C   0  0  0  0  0  0
  -18.8811   21.2612  -15.3473 O   0  0  0  0  0  0
  -17.6952   19.3461  -15.7621 C   0  0  0  0  0  0
  -17.6122   17.9782  -15.9679 C   0  0  0  0  0  0
  -16.4648   17.4859  -16.5618 C   0  0  0  0  0  0
  -15.4456   18.2611  -16.9923 N   0  0  0  0  0  0
  -15.5795   19.5923  -16.8361 C   0  0  0  0  0  0
  -16.6723   20.1763  -16.2331 C   0  0  0  0  0  0
  -21.0564   21.5721  -13.3201 C   0  0  0  0  0  0
  -20.0648   21.9172  -12.4222 C   0  0  0  0  0  0
  -20.2746   23.0316  -11.4607 C   0  0  0  0  0  0
  -21.4773   23.7996  -11.3551 C   0  0  0  0  0  0
  -22.3986   23.4990  -12.2480 C   0  0  0  0  0  0
  -22.0840   22.5470  -13.1521 C   0  0  0  0  0  0
  -22.0113   24.9513  -10.5200 C   0  0  0  0  0  0
  -20.8913   25.3384   -9.5981 C   0  0  0  0  0  0
  -22.4336   26.1514  -11.4606 C   0  0  0  0  0  0
  -23.3087   24.5234   -9.7464 C   0  0  0  0  0  0
  -18.3345   17.5778  -13.6953 H   0  0  0  0  0  0
  1  2  1  0  0  0
  2  3  1  0  0  0
  2  4  1  0  0  0
  4  5  1  0  0  0
  5  6  1  0  0  0
  6  7  1  0  0  0
  7  8  1  0  0  0
  7 12  1  0  0  0
  8  9  1  0  0  0
  8 22  1  0  0  0
  9 10  2  0  0  0
  9 14  1  0  0  0
 10 11  1  0  0  0
 10 12  1  0  0  0
 11 32  1  0  0  0
 12 13  2  0  0  0
 14 15  2  0  0  0
 14 16  1  0  0  0
 16 17  2  0  0  0
 16 21  1  0  0  0
 17 18  1  0  0  0
 18 19  2  0  0  0
 19 20  1  0  0  0
 20 21  2  0  0  0
 22 23  2  0  0  0
 22 27  1  0  0  0
 23 24  1  0  0  0
 24 25  2  0  0  0
 25 26  1  0  0  0
 25 28  1  0  0  0
 26 27  2  0  0  0
 28 29  1  0  0  0
 28 30  1  0  0  0
 28 31  1  0  0  0
M  END
>  <CHROM.0>
40.34080240,-77.39550304,-45.14350578,59.18689151,-28.76156612,59.66158780
-157.72240223,-50.37257142

>  <CHROM.1>
116.31002532,-67.02288959,169.42221765,-43.55204679,106.94489057,23.89668625
15.24718414,16.98907472,1.37488852,-21.01185428,20.44867577,-14.22115931
1.14855674,0.04685435,-2.43260304

>  <Name>
F3226-2220

>  <RI>
2.3538e+07

>  <Rbt.Current_Directory>
/home/adria/Escritorio/rDock_CMTR_LC/2pxcA_model/inputs_sah

>  <Rbt.Executable>
rbdock ($Id: //depot/dev/client3/rdock/2013.1/src/exe/rbdock.cxx#4 $)

>  <Rbt.Library>
libRbt.so (2013.1, Build901 2013/11/27)

>  <Rbt.Parameter_File>
/home/adria/Escritorio/rDock_2013.1_src/data/scripts/dock.prm

>  <Rbt.Receptor>
sah_rdock.prm

>  <SCORE>
-70.5208

>  <SCORE.INTER>
-12.713

>  <SCORE.INTER.CONST>
1

>  <SCORE.INTER.POLAR>
-0.824621

>  <SCORE.INTER.REPUL>
0

>  <SCORE.INTER.ROT>
8

>  <SCORE.INTER.VDW>
-23.3093

>  <SCORE.INTER.norm>
-0.410098

>  <SCORE.INTRA>
-56.6656

>  <SCORE.INTRA.DIHEDRAL>
-3.91237

>  <SCORE.INTRA.DIHEDRAL.0>
11.5155

>  <SCORE.INTRA.POLAR>
0

>  <SCORE.INTRA.POLAR.0>
0

>  <SCORE.INTRA.REPUL>
-0.169236

>  <SCORE.INTRA.REPUL.0>
0.169236

>  <SCORE.INTRA.VDW>
-53.8632

>  <SCORE.INTRA.VDW.0>
60.0108

>  <SCORE.INTRA.norm>
-1.82792

>  <SCORE.RESTR>
0

>  <SCORE.RESTR.CAVITY>
0

>  <SCORE.RESTR.norm>
0

>  <SCORE.SYSTEM>
-1.1421

>  <SCORE.SYSTEM.CONST>
0

>  <SCORE.SYSTEM.DIHEDRAL>
11.4292

>  <SCORE.SYSTEM.POLAR>
-3.71297

>  <SCORE.SYSTEM.REPUL>
0.178287

>  <SCORE.SYSTEM.VDW>
4.87599

>  <SCORE.SYSTEM.norm>
-0.036842

>  <SCORE.heavy>
31

>  <SCORE.norm>
-2.27486

$$$$
F3226-2220
  rDOCK(R)          3D
libRbt.so/2013.1/901 2013/11/27
 32 34  0  0  0  0  0  0  0  0999 V2000
  -14.5873   16.1861  -16.5847 C   0  0  0  0  0  0
  -15.7740   16.7884  -17.3860 N   0  0  0  0  0  0
  -16.9864   16.1859  -18.4200 C   0  0  0  0  0  0
  -16.4949   17.6425  -16.5113 C   0  0  0  0  0  0
  -16.1444   18.9450  -17.1819 C   0  0  0  0  0  0
  -16.8446   20.2308  -16.4357 C   0  0  0  0  0  0
  -18.4314   20.3331  -16.0761 N   0  0  0  0  0  0
  -19.2351   19.9415  -14.7580 C   0  0  0  0  0  0
  -20.4025   19.2401  -15.4601 C   0  0  0  0  0  0
  -20.5481   19.6294  -16.7346 C   0  0  0  0  0  0
  -21.4452   19.2475  -17.6820 O   0  0  0  0  0  0
  -19.2880   20.3010  -17.2379 C   0  0  0  0  0  0
  -19.0914   20.5308  -18.3295 O   0  0  0  0  0  0
  -21.0320   18.2153  -14.5635 C   0  0  0  0  0  0
  -20.8296   17.0245  -14.7778 O   0  0  0  0  0  0
  -21.8828   18.5343  -13.4151 C   0  0  0  0  0  0
  -22.5233   19.7448  -13.2026 C   0  0  0  0  0  0
  -23.3127   19.8648  -12.0739 C   0  0  0  0  0  0
  -23.5315   18.8618  -11.1957 N   0  0  0  0  0  0
  -22.9467   17.6775  -11.4595 C   0  0  0  0  0  0
  -22.1223   17.4666  -12.5434 C   0  0  0  0  0  0
  -19.8452   21.1078  -13.6109 C   0  0  0  0  0  0
  -19.7428   21.1762  -12.2348 C   0  0  0  0  0  0
  -20.5358   22.1743  -11.4699 C   0  0  0  0  0  0
  -21.4611   23.0975  -12.0522 C   0  0  0  0  0  0
  -21.5152   23.0612  -13.3682 C   0  0  0  0  0  0
  -20.6829   22.1985  -13.9892 C   0  0  0  0  0  0
  -22.4000   24.1984  -11.5881 C   0  0  0  0  0  0
  -23.7836   23.7200  -11.9215 C   0  0  0  0  0  0
  -22.2250   24.4394  -10.0343 C   0  0  0  0  0  0
  -22.0486   25.5605  -12.2853 C   0  0  0  0  0  0
  -21.9308   18.5272  -17.2912 H   0  0  0  0  0  0
  1  2  1  0  0  0
  2  3  1  0  0  0
  2  4  1  0  0  0
  4  5  1  0  0  0
  5  6  1  0  0  0
  6  7  1  0  0  0
  7  8  1  0  0  0
  7 12  1  0  0  0
  8  9  1  0  0  0
  8 22  1  0  0  0
  9 10  2  0  0  0
  9 14  1  0  0  0
 10 11  1  0  0  0
 10 12  1  0  0  0
 11 32  1  0  0  0
 12 13  2  0  0  0
 14 15  2  0  0  0
 14 16  1  0  0  0
 16 17  2  0  0  0
 16 21  1  0  0  0
 17 18  1  0  0  0
 18 19  2  0  0  0
 19 20  1  0  0  0
 20 21  2  0  0  0
 22 23  2  0  0  0
 22 27  1  0  0  0
 23 24  1  0  0  0
 24 25  2  0  0  0
 25 26  1  0  0  0
 25 28  1  0  0  0
 26 27  2  0  0  0
 28 29  1  0  0  0
 28 30  1  0  0  0
 28 31  1  0  0  0
M  END
>  <CHROM.0>
-60.02766774,-68.85338689,71.46135631,-147.84840167,-30.00847612,-176.96220547
83.65641149,-162.48623483

>  <CHROM.1>
111.63093875,179.16357524,-50.96338816,92.50074742,-130.75964177,-105.90897860
-6.80752211,18.80132534,-115.70274441,-20.20329638,20.07834638,-14.41257897
0.67050428,-0.71720244,-2.98981605

>  <Name>
F3226-2220

>  <RI>
2.3538e+07

>  <Rbt.Current_Directory>
/home/adria/Escritorio/rDock_CMTR_LC/2pxcA_model/inputs_sah

>  <Rbt.Executable>
rbdock ($Id: //depot/dev/client3/rdock/2013.1/src/exe/rbdock.cxx#4 $)

>  <Rbt.Library>
libRbt.so (2013.1, Build901 2013/11/27)

>  <Rbt.Parameter_File>
/home/adria/Escritorio/rDock_2013.1_src/data/scripts/dock.prm

>  <Rbt.Receptor>
sah_rdock.prm

>  <SCORE>
-67.7607

>  <SCORE.INTER>
-8.60753

>  <SCORE.INTER.CONST>
1

>  <SCORE.INTER.POLAR>
0

>  <SCORE.INTER.REPUL>
0.154438

>  <SCORE.INTER.ROT>
8

>  <SCORE.INTER.VDW>
-22.7797

>  <SCORE.INTER.norm>
-0.277662

>  <SCORE.INTRA>
-54.9186

>  <SCORE.INTRA.DIHEDRAL>
6.49156

>  <SCORE.INTRA.DIHEDRAL.0>
11.5155

>  <SCORE.INTRA.POLAR>
0

>  <SCORE.INTRA.POLAR.0>
0

>  <SCORE.INTRA.REPUL>
-0.169236

>  <SCORE.INTRA.REPUL.0>
0.169236

>  <SCORE.INTRA.VDW>
-57.3182

>  <SCORE.INTRA.VDW.0>
60.0108

>  <SCORE.INTRA.norm>
-1.77157

>  <SCORE.RESTR>
0

>  <SCORE.RESTR.CAVITY>
0

>  <SCORE.RESTR.norm>
0

>  <SCORE.SYSTEM>
-4.23462

>  <SCORE.SYSTEM.CONST>
0

>  <SCORE.SYSTEM.DIHEDRAL>
9.96823

>  <SCORE.SYSTEM.POLAR>
-3.98137

>  <SCORE.SYSTEM.REPUL>
0.0303059

>  <SCORE.SYSTEM.VDW>
4.1664

>  <SCORE.SYSTEM.norm>
-0.136601

>  <SCORE.heavy>
31

>  <SCORE.norm>
-2.18583

$$$$
F3226-2220
  rDOCK(R)          3D
libRbt.so/2013.1/901 2013/11/27
 32 34  0  0  0  0  0  0  0  0999 V2000
  -21.7232   25.7595  -10.6659 C   0  0  0  0  0  0
  -22.5601   25.0276  -11.7508 N   0  0  0  0  0  0
  -23.9943   25.3449  -12.6140 C   0  0  0  0  0  0
  -21.6663   24.5936  -12.7642 C   0  0  0  0  0  0
  -21.7406   23.1187  -12.4676 C   0  0  0  0  0  0
  -20.9059   22.2259  -13.5661 C   0  0  0  0  0  0
  -20.6690   20.6169  -13.4540 N   0  0  0  0  0  0
  -20.9810   19.4375  -14.4778 C   0  0  0  0  0  0
  -21.5893   18.4692  -13.4579 C   0  0  0  0  0  0
  -21.2006   18.7304  -12.2018 C   0  0  0  0  0  0
  -21.5151   18.1171  -11.0300 O   0  0  0  0  0  0
  -20.6403   20.1328  -12.0940 C   0  0  0  0  0  0
  -20.4373   20.6545  -11.1093 O   0  0  0  0  0  0
  -22.5503   17.5257  -14.1187 C   0  0  0  0  0  0
  -22.6551   16.3799  -13.6934 O   0  0  0  0  0  0
  -23.4040   17.8787  -15.2550 C   0  0  0  0  0  0
  -23.4341   19.1137  -15.8830 C   0  0  0  0  0  0
  -24.2845   19.2654  -16.9624 C   0  0  0  0  0  0
  -25.0493   18.2722  -17.4662 N   0  0  0  0  0  0
  -24.9541   17.0654  -16.8755 C   0  0  0  0  0  0
  -24.1556   16.8216  -15.7792 C   0  0  0  0  0  0
  -19.7579   18.6197  -15.4180 C   0  0  0  0  0  0
  -19.0612   19.0074  -16.5462 C   0  0  0  0  0  0
  -18.2117   18.0316  -17.2785 C   0  0  0  0  0  0
  -18.0630   16.6538  -16.9220 C   0  0  0  0  0  0
  -18.6890   16.3041  -15.8165 C   0  0  0  0  0  0
  -19.3501   17.2783  -15.1558 C   0  0  0  0  0  0
  -17.3164   15.4311  -17.4286 C   0  0  0  0  0  0
  -18.3739   14.4780  -17.9057 C   0  0  0  0  0  0
  -16.3329   15.8436  -18.5973 C   0  0  0  0  0  0
  -16.4185   14.8180  -16.2960 C   0  0  0  0  0  0
  -21.8643   17.2664  -11.2785 H   0  0  0  0  0  0
  1  2  1  0  0  0
  2  3  1  0  0  0
  2  4  1  0  0  0
  4  5  1  0  0  0
  5  6  1  0  0  0
  6  7  1  0  0  0
  7  8  1  0  0  0
  7 12  1  0  0  0
  8  9  1  0  0  0
  8 22  1  0  0  0
  9 10  2  0  0  0
  9 14  1  0  0  0
 10 11  1  0  0  0
 10 12  1  0  0  0
 11 32  1  0  0  0
 12 13  2  0  0  0
 14 15  2  0  0  0
 14 16  1  0  0  0
 16 17  2  0  0  0
 16 21  1  0  0  0
 17 18  1  0  0  0
 18 19  2  0  0  0
 19 20  1  0  0  0
 20 21  2  0  0  0
 22 23  2  0  0  0
 22 27  1  0  0  0
 23 24  1  0  0  0
 24 25  2  0  0  0
 25 26  1  0  0  0
 25 28  1  0  0  0
 26 27  2  0  0  0
 28 29  1  0  0  0
 28 30  1  0  0  0
 28 31  1  0  0  0
M  END
>  <CHROM.0>
-57.51380164,67.26044356,110.88987644,-144.48665196,-30.63703430,179.59782114
63.89667586,-164.81412211

>  <CHROM.1>
109.24920646,174.70646367,173.96460899,125.53349616,-76.14062151,146.58112679
17.73640522,0.76864634,-113.56724261,-21.01940294,19.11863440,-14.61131934
-1.95657943,0.08729770,-2.53823856

>  <Name>
F3226-2220

>  <RI>
2.3538e+07

>  <Rbt.Current_Directory>
/home/adria/Escritorio/rDock_CMTR_LC/2pxcA_model/inputs_sah

>  <Rbt.Executable>
rbdock ($Id: //depot/dev/client3/rdock/2013.1/src/exe/rbdock.cxx#4 $)

>  <Rbt.Library>
libRbt.so (2013.1, Build901 2013/11/27)

>  <Rbt.Parameter_File>
/home/adria/Escritorio/rDock_2013.1_src/data/scripts/dock.prm

>  <Rbt.Receptor>
sah_rdock.prm

>  <SCORE>
-69.5607

>  <SCORE.INTER>
-11.5887

>  <SCORE.INTER.CONST>
1

>  <SCORE.INTER.POLAR>
-1.04759

>  <SCORE.INTER.REPUL>
0.0780771

>  <SCORE.INTER.ROT>
8

>  <SCORE.INTER.VDW>
-21.8172

>  <SCORE.INTER.norm>
-0.373828

>  <SCORE.INTRA>
-55.3431

>  <SCORE.INTRA.DIHEDRAL>
-0.891164

>  <SCORE.INTRA.DIHEDRAL.0>
11.5155

>  <SCORE.INTRA.POLAR>
0

>  <SCORE.INTRA.POLAR.0>
0

>  <SCORE.INTRA.REPUL>
-0.169236

>  <SCORE.INTRA.REPUL.0>
0.169236

>  <SCORE.INTRA.VDW>
-54.0513

>  <SCORE.INTRA.VDW.0>
60.0108

>  <SCORE.INTRA.norm>
-1.78526

>  <SCORE.RESTR>
0

>  <SCORE.RESTR.CAVITY>
0

>  <SCORE.RESTR.norm>
0

>  <SCORE.SYSTEM>
-2.629

>  <SCORE.SYSTEM.CONST>
0

>  <SCORE.SYSTEM.DIHEDRAL>
12.159

>  <SCORE.SYSTEM.POLAR>
-3.75605

>  <SCORE.SYSTEM.VDW>
4.06206

>  <SCORE.SYSTEM.norm>
-0.0848064

>  <SCORE.heavy>
31

>  <SCORE.norm>
-2.24389

$$$$
F3226-2220
  rDOCK(R)          3D
libRbt.so/2013.1/901 2013/11/27
 32 34  0  0  0  0  0  0  0  0999 V2000
  -24.3503   21.7189  -12.2656 C   0  0  0  0  0  0
  -23.4293   20.5289  -11.8799 N   0  0  0  0  0  0
  -23.0326   19.7005  -10.4451 C   0  0  0  0  0  0
  -23.6782   19.4762  -12.7986 C   0  0  0  0  0  0
  -22.3716   19.5579  -13.5436 C   0  0  0  0  0  0
  -22.3060   18.4915  -14.7923 C   0  0  0  0  0  0
  -21.0048   18.2769  -15.7507 N   0  0  0  0  0  0
  -19.5116   17.8408  -15.4091 C   0  0  0  0  0  0
  -18.8133   18.8829  -16.2890 C   0  0  0  0  0  0
  -19.6031   19.3443  -17.2691 C   0  0  0  0  0  0
  -19.3653   20.2644  -18.2412 O   0  0  0  0  0  0
  -21.0572   19.0443  -16.9726 C   0  0  0  0  0  0
  -21.9224   19.5054  -17.5400 O   0  0  0  0  0  0
  -17.4423   19.1960  -15.7670 C   0  0  0  0  0  0
  -17.3172   19.6123  -14.6198 O   0  0  0  0  0  0
  -16.2078   19.0283  -16.5366 C   0  0  0  0  0  0
  -16.0271   18.1329  -17.5787 C   0  0  0  0  0  0
  -14.7999   18.1264  -18.2153 C   0  0  0  0  0  0
  -13.7881   18.9689  -17.9125 N   0  0  0  0  0  0
  -14.0123   19.8707  -16.9373 C   0  0  0  0  0  0
  -15.1915   19.9388  -16.2276 C   0  0  0  0  0  0
  -18.8645   16.2534  -15.7401 C   0  0  0  0  0  0
  -18.6376   15.1686  -14.9152 C   0  0  0  0  0  0
  -17.8790   13.9906  -15.4125 C   0  0  0  0  0  0
  -17.3106   13.8821  -16.7212 C   0  0  0  0  0  0
  -17.5747   14.8975  -17.5183 C   0  0  0  0  0  0
  -18.3604   15.8758  -17.0199 C   0  0  0  0  0  0
  -16.5058   12.8721  -17.5219 C   0  0  0  0  0  0
  -16.2225   11.7387  -16.5789 C   0  0  0  0  0  0
  -17.3381   12.3911  -18.7785 C   0  0  0  0  0  0
  -15.1961   13.5271  -18.0883 C   0  0  0  0  0  0
  -20.2142   20.4340  -18.6386 H   0  0  0  0  0  0
  1  2  1  0  0  0
  2  3  1  0  0  0
  2  4  1  0  0  0
  4  5  1  0  0  0
  5  6  1  0  0  0
  6  7  1  0  0  0
  7  8  1  0  0  0
  7 12  1  0  0  0
  8  9  1  0  0  0
  8 22  1  0  0  0
  9 10  2  0  0  0
  9 14  1  0  0  0
 10 11  1  0  0  0
 10 12  1  0  0  0
 11 32  1  0  0  0
 12 13  2  0  0  0
 14 15  2  0  0  0
 14 16  1  0  0  0
 16 17  2  0  0  0
 16 21  1  0  0  0
 17 18  1  0  0  0
 18 19  2  0  0  0
 19 20  1  0  0  0
 20 21  2  0  0  0
 22 23  2  0  0  0
 22 27  1  0  0  0
 23 24  1  0  0  0
 24 25  2  0  0  0
 25 26  1  0  0  0
 25 28  1  0  0  0
 26 27  2  0  0  0
 28 29  1  0  0  0
 28 30  1  0  0  0
 28 31  1  0  0  0
M  END
>  <CHROM.0>
-60.22914549,65.94955891,-43.73879948,-62.09991213,168.28993164,59.52985991
-156.68165852,-166.40652996

>  <CHROM.1>
109.22333085,-177.19911567,-176.92616500,59.11521714,-101.97497563,-57.67378282
-169.92169825,-26.27144794,-3.55737023,-18.75943678,17.65467534,-15.94917838
2.54362716,0.51503635,0.06994550

>  <Name>
F3226-2220

>  <RI>
2.3538e+07

>  <Rbt.Current_Directory>
/home/adria/Escritorio/rDock_CMTR_LC/2pxcA_model/inputs_sah

>  <Rbt.Executable>
rbdock ($Id: //depot/dev/client3/rdock/2013.1/src/exe/rbdock.cxx#4 $)

>  <Rbt.Library>
libRbt.so (2013.1, Build901 2013/11/27)

>  <Rbt.Parameter_File>
/home/adria/Escritorio/rDock_2013.1_src/data/scripts/dock.prm

>  <Rbt.Receptor>
sah_rdock.prm

>  <SCORE>
-69.415

>  <SCORE.INTER>
-12.5152

>  <SCORE.INTER.CONST>
1

>  <SCORE.INTER.POLAR>
-0.894427

>  <SCORE.INTER.REPUL>
0.053029

>  <SCORE.INTER.ROT>
8

>  <SCORE.INTER.VDW>
-23.1393

>  <SCORE.INTER.norm>
-0.403717

>  <SCORE.INTRA>
-54.6856

>  <SCORE.INTRA.DIHEDRAL>
5.08436

>  <SCORE.INTRA.DIHEDRAL.0>
11.5155

>  <SCORE.INTRA.POLAR>
0

>  <SCORE.INTRA.POLAR.0>
0

>  <SCORE.INTRA.REPUL>
-0.169236

>  <SCORE.INTRA.REPUL.0>
0.169236

>  <SCORE.INTRA.VDW>
-56.3816

>  <SCORE.INTRA.VDW.0>
60.0108

>  <SCORE.INTRA.norm>
-1.76405

>  <SCORE.RESTR>
0

>  <SCORE.RESTR.CAVITY>
0

>  <SCORE.RESTR.norm>
0

>  <SCORE.SYSTEM>
-2.21417

>  <SCORE.SYSTEM.CONST>
0

>  <SCORE.SYSTEM.DIHEDRAL>
2.91372

>  <SCORE.SYSTEM.POLAR>
-3.65071

>  <SCORE.SYSTEM.VDW>
8.74138

>  <SCORE.SYSTEM.norm>
-0.0714248

>  <SCORE.heavy>
31

>  <SCORE.norm>
-2.23919

$$$$
