F0807-0830
  rDOCK(R)          3D
libRbt.so/2013.1/901 2013/11/27
 20 20  0  0  0  0  0  0  0  0999 V2000
  -17.2069   17.8309  -15.8524 C   0  0  0  0  0  0
  -17.7383   19.0717  -15.1508 C   0  0  0  0  0  0
  -18.6718   18.6985  -14.0916 O   0  0  0  0  0  0
  -19.4702   19.6018  -13.3784 C   0  0  0  0  0  0
  -20.8250   19.1841  -13.0997 C   0  0  0  0  0  0
  -21.9183   20.1608  -12.7852 C   0  0  0  0  0  0
  -21.6878   21.5571  -12.8327 C   0  0  0  0  0  0
  -22.6779   22.6717  -13.1187 N   0  0  0  0  0  0
  -22.8024   24.0162  -13.0451 C   0  0  0  0  0  0
  -24.0225   24.8082  -13.9177 S   0  0  0  0  0  0
  -22.1407   24.8164  -12.2035 N   0  0  0  0  0  0
  -21.3493   24.4620  -11.0644 C   0  0  0  0  0  0
  -21.9355   24.4472   -9.6200 C   0  0  0  0  0  0
  -23.1740   23.8181   -8.9239 C   0  0  0  0  0  0
  -23.1458   23.6361   -7.5827 O   0  0  0  0  0  0
  -20.3204   21.9383  -12.9587 C   0  0  0  0  0  0
  -19.2298   20.9892  -13.2511 C   0  0  0  0  0  0
  -23.5920   22.3304  -13.4129 H   0  0  0  0  0  0
  -22.2305   25.8097  -12.4093 H   0  0  0  0  0  0
  -22.3047   22.9748   -7.5780 H   0  0  0  0  0  0
  1  2  1  0  0  0
  2  3  1  0  0  0
  3  4  1  0  0  0
  4  5  2  0  0  0
  4 17  1  0  0  0
  5  6  1  0  0  0
  6  7  2  0  0  0
  7  8  1  0  0  0
  7 16  1  0  0  0
  8  9  1  0  0  0
  8 18  1  0  0  0
  9 10  2  0  0  0
  9 11  1  0  0  0
 11 12  1  0  0  0
 11 19  1  0  0  0
 12 13  1  0  0  0
 13 14  1  0  0  0
 14 15  1  0  0  0
 15 20  1  0  0  0
 16 17  2  0  0  0
M  END
>  <CHROM.0>
-61.36019709,-167.48053372,-45.11035273,57.46065464,34.47229199,67.84970632
-37.19103460,-163.27220818

>  <CHROM.1>
-171.02339821,139.45295688,167.17560093,-95.08070450,51.56377491,158.05623504
-60.85826879,-21.28970286,22.09250978,-12.57027335,0.50768693,0.87148280
-1.59399315

>  <Name>
F0807-0830

>  <RI>
2.85679e+07

>  <Rbt.Current_Directory>
/home/adria/Escritorio/rDock_CMTR_LC/2pxcA_model/inputs_sah

>  <Rbt.Executable>
rbdock ($Id: //depot/dev/client3/rdock/2013.1/src/exe/rbdock.cxx#4 $)

>  <Rbt.Library>
libRbt.so (2013.1, Build901 2013/11/27)

>  <Rbt.Parameter_File>
/home/adria/Escritorio/rDock_2013.1_src/data/scripts/dock.prm

>  <Rbt.Receptor>
sah_rdock.prm

>  <SCORE>
-46.8296

>  <SCORE.INTER>
-8.59185

>  <SCORE.INTER.CONST>
1

>  <SCORE.INTER.POLAR>
-1.30311

>  <SCORE.INTER.REPUL>
0

>  <SCORE.INTER.ROT>
6

>  <SCORE.INTER.VDW>
-15.5613

>  <SCORE.INTER.norm>
-0.505403

>  <SCORE.INTRA>
-44.0079

>  <SCORE.INTRA.DIHEDRAL>
-2.97544

>  <SCORE.INTRA.DIHEDRAL.0>
10.5783

>  <SCORE.INTRA.POLAR>
0

>  <SCORE.INTRA.POLAR.0>
0

>  <SCORE.INTRA.REPUL>
0

>  <SCORE.INTRA.REPUL.0>
0

>  <SCORE.INTRA.VDW>
-42.5202

>  <SCORE.INTRA.VDW.0>
41.073

>  <SCORE.INTRA.norm>
-2.5887

>  <SCORE.RESTR>
0

>  <SCORE.RESTR.CAVITY>
0

>  <SCORE.RESTR.norm>
0

>  <SCORE.SYSTEM>
5.77016

>  <SCORE.SYSTEM.CONST>
0

>  <SCORE.SYSTEM.DIHEDRAL>
5.75776

>  <SCORE.SYSTEM.POLAR>
-3.38644

>  <SCORE.SYSTEM.VDW>
14.4052

>  <SCORE.SYSTEM.norm>
0.339421

>  <SCORE.heavy>
17

>  <SCORE.norm>
-2.75468

$$$$
F0807-0830
  rDOCK(R)          3D
libRbt.so/2013.1/901 2013/11/27
 20 20  0  0  0  0  0  0  0  0999 V2000
  -17.3210   19.9078  -16.7041 C   0  0  0  0  0  0
  -18.4724   20.6655  -16.0605 C   0  0  0  0  0  0
  -18.5518   20.3582  -14.6351 O   0  0  0  0  0  0
  -19.5351   20.8506  -13.7674 C   0  0  0  0  0  0
  -20.2674   22.0126  -14.2157 C   0  0  0  0  0  0
  -20.9873   22.9238  -13.2672 C   0  0  0  0  0  0
  -20.9086   22.7319  -11.8666 C   0  0  0  0  0  0
  -21.0362   23.7634  -10.7601 N   0  0  0  0  0  0
  -21.8497   24.7550  -10.3316 C   0  0  0  0  0  0
  -21.7217   25.3358   -8.7430 S   0  0  0  0  0  0
  -22.6786   25.4706  -11.0980 N   0  0  0  0  0  0
  -22.7478   25.5357  -12.5264 C   0  0  0  0  0  0
  -23.8938   24.8526  -13.3328 C   0  0  0  0  0  0
  -24.6545   23.4995  -13.2641 C   0  0  0  0  0  0
  -25.5242   23.1895  -14.2542 O   0  0  0  0  0  0
  -20.3128   21.5030  -11.4591 C   0  0  0  0  0  0
  -19.6154   20.5865  -12.3807 C   0  0  0  0  0  0
  -20.2266   23.7905  -10.1419 H   0  0  0  0  0  0
  -23.3366   26.0495  -10.5794 H   0  0  0  0  0  0
  -24.7811   23.0112  -15.0031 H   0  0  0  0  0  0
  1  2  1  0  0  0
  2  3  1  0  0  0
  3  4  1  0  0  0
  4  5  2  0  0  0
  4 17  1  0  0  0
  5  6  1  0  0  0
  6  7  2  0  0  0
  7  8  1  0  0  0
  7 16  1  0  0  0
  8  9  1  0  0  0
  8 18  1  0  0  0
  9 10  2  0  0  0
  9 11  1  0  0  0
 11 12  1  0  0  0
 11 19  1  0  0  0
 12 13  1  0  0  0
 13 14  1  0  0  0
 14 15  1  0  0  0
 15 20  1  0  0  0
 16 17  2  0  0  0
M  END
>  <CHROM.0>
-59.13304964,-70.54933709,110.38584692,66.16556088,-30.12812017,-175.22028596
82.79622875,-157.98496547

>  <CHROM.1>
-177.26886276,-18.39318806,51.25044184,106.25174460,-41.33749685,-172.94048711
71.55048977,-21.26026200,23.00565890,-12.62067746,-0.91405226,-0.43963076
1.09200140

>  <Name>
F0807-0830

>  <RI>
2.85679e+07

>  <Rbt.Current_Directory>
/home/adria/Escritorio/rDock_CMTR_LC/2pxcA_model/inputs_sah

>  <Rbt.Executable>
rbdock ($Id: //depot/dev/client3/rdock/2013.1/src/exe/rbdock.cxx#4 $)

>  <Rbt.Library>
libRbt.so (2013.1, Build901 2013/11/27)

>  <Rbt.Parameter_File>
/home/adria/Escritorio/rDock_2013.1_src/data/scripts/dock.prm

>  <Rbt.Receptor>
sah_rdock.prm

>  <SCORE>
-64.7632

>  <SCORE.INTER>
-15.8212

>  <SCORE.INTER.CONST>
1

>  <SCORE.INTER.POLAR>
-1.96413

>  <SCORE.INTER.REPUL>
0

>  <SCORE.INTER.ROT>
6

>  <SCORE.INTER.VDW>
-20.5432

>  <SCORE.INTER.norm>
-0.93066

>  <SCORE.INTRA>
-41.7559

>  <SCORE.INTRA.DIHEDRAL>
0.601806

>  <SCORE.INTRA.DIHEDRAL.0>
10.5783

>  <SCORE.INTRA.POLAR>
0

>  <SCORE.INTRA.POLAR.0>
0

>  <SCORE.INTRA.REPUL>
0

>  <SCORE.INTRA.REPUL.0>
0

>  <SCORE.INTRA.VDW>
-42.0568

>  <SCORE.INTRA.VDW.0>
41.073

>  <SCORE.INTRA.norm>
-2.45623

>  <SCORE.RESTR>
0

>  <SCORE.RESTR.CAVITY>
0

>  <SCORE.RESTR.norm>
0

>  <SCORE.SYSTEM>
-7.18603

>  <SCORE.SYSTEM.CONST>
0

>  <SCORE.SYSTEM.DIHEDRAL>
9.54564

>  <SCORE.SYSTEM.POLAR>
-4.55436

>  <SCORE.SYSTEM.REPUL>
0.0338687

>  <SCORE.SYSTEM.VDW>
3.35662

>  <SCORE.SYSTEM.norm>
-0.422708

>  <SCORE.heavy>
17

>  <SCORE.norm>
-3.8096

$$$$
F0807-0830
  rDOCK(R)          3D
libRbt.so/2013.1/901 2013/11/27
 20 20  0  0  0  0  0  0  0  0999 V2000
  -19.8753   17.8944  -14.5723 C   0  0  0  0  0  0
  -20.0969   19.1818  -13.7929 C   0  0  0  0  0  0
  -20.8056   18.9076  -12.5458 O   0  0  0  0  0  0
  -21.1672   19.8798  -11.6044 C   0  0  0  0  0  0
  -21.9129   19.4193  -10.4558 C   0  0  0  0  0  0
  -22.7600   20.3378   -9.6270 C   0  0  0  0  0  0
  -22.9367   21.6953   -9.9885 C   0  0  0  0  0  0
  -24.1115   22.6098   -9.6915 N   0  0  0  0  0  0
  -24.4690   23.9134   -9.7295 C   0  0  0  0  0  0
  -26.1072   24.3499   -9.6728 S   0  0  0  0  0  0
  -23.6346   24.9543   -9.6475 N   0  0  0  0  0  0
  -22.2508   24.9677   -9.2809 C   0  0  0  0  0  0
  -21.1138   25.0920  -10.3402 C   0  0  0  0  0  0
  -19.5968   25.4269  -10.3158 C   0  0  0  0  0  0
  -19.2166   26.7241  -10.2418 O   0  0  0  0  0  0
  -22.0782   22.1591  -11.0272 C   0  0  0  0  0  0
  -21.2258   21.2725  -11.8413 C   0  0  0  0  0  0
  -24.8981   22.1253   -9.2615 H   0  0  0  0  0  0
  -24.0596   25.8527   -9.8696 H   0  0  0  0  0  0
  -19.4067   26.9544  -11.2693 H   0  0  0  0  0  0
  1  2  1  0  0  0
  2  3  1  0  0  0
  3  4  1  0  0  0
  4  5  2  0  0  0
  4 17  1  0  0  0
  5  6  1  0  0  0
  6  7  2  0  0  0
  7  8  1  0  0  0
  7 16  1  0  0  0
  8  9  1  0  0  0
  8 18  1  0  0  0
  9 10  2  0  0  0
  9 11  1  0  0  0
 11 12  1  0  0  0
 11 19  1  0  0  0
 12 13  1  0  0  0
 13 14  1  0  0  0
 14 15  1  0  0  0
 15 20  1  0  0  0
 16 17  2  0  0  0
M  END
>  <CHROM.0>
-59.20066948,-168.80400547,-163.52383958,65.52682192,-30.59957256,-173.59754165
-37.80653939,-157.92122269

>  <CHROM.1>
-179.76388388,177.57806004,167.60833659,102.47315173,164.56169944,-80.35976363
-77.26389417,-22.20533112,22.48515690,-10.78877246,-1.14968575,0.32187152
0.35382433

>  <Name>
F0807-0830

>  <RI>
2.85679e+07

>  <Rbt.Current_Directory>
/home/adria/Escritorio/rDock_CMTR_LC/2pxcA_model/inputs_sah

>  <Rbt.Executable>
rbdock ($Id: //depot/dev/client3/rdock/2013.1/src/exe/rbdock.cxx#4 $)

>  <Rbt.Library>
libRbt.so (2013.1, Build901 2013/11/27)

>  <Rbt.Parameter_File>
/home/adria/Escritorio/rDock_2013.1_src/data/scripts/dock.prm

>  <Rbt.Receptor>
sah_rdock.prm

>  <SCORE>
-67.7563

>  <SCORE.INTER>
-17.8063

>  <SCORE.INTER.CONST>
1

>  <SCORE.INTER.POLAR>
-3.01623

>  <SCORE.INTER.REPUL>
0

>  <SCORE.INTER.ROT>
6

>  <SCORE.INTER.VDW>
-18.9511

>  <SCORE.INTER.norm>
-1.04743

>  <SCORE.INTRA>
-43.9426

>  <SCORE.INTRA.DIHEDRAL>
-2.85103

>  <SCORE.INTRA.DIHEDRAL.0>
10.5783

>  <SCORE.INTRA.POLAR>
0

>  <SCORE.INTRA.POLAR.0>
0

>  <SCORE.INTRA.REPUL>
0

>  <SCORE.INTRA.REPUL.0>
0

>  <SCORE.INTRA.VDW>
-42.5171

>  <SCORE.INTRA.VDW.0>
41.073

>  <SCORE.INTRA.norm>
-2.58486

>  <SCORE.RESTR>
0

>  <SCORE.RESTR.CAVITY>
0

>  <SCORE.RESTR.norm>
0

>  <SCORE.SYSTEM>
-6.00736

>  <SCORE.SYSTEM.CONST>
0

>  <SCORE.SYSTEM.DIHEDRAL>
6.7337

>  <SCORE.SYSTEM.POLAR>
-3.64471

>  <SCORE.SYSTEM.VDW>
3.01781

>  <SCORE.SYSTEM.norm>
-0.353374

>  <SCORE.heavy>
17

>  <SCORE.norm>
-3.98566

$$$$
F0807-0830
  rDOCK(R)          3D
libRbt.so/2013.1/901 2013/11/27
 20 20  0  0  0  0  0  0  0  0999 V2000
  -22.6036   17.9412  -13.4350 C   0  0  0  0  0  0
  -21.1748   17.4378  -13.2964 C   0  0  0  0  0  0
  -20.2518   18.3209  -14.0042 O   0  0  0  0  0  0
  -19.9842   19.6478  -13.6436 C   0  0  0  0  0  0
  -20.2263   20.0025  -12.2641 C   0  0  0  0  0  0
  -20.4456   21.4194  -11.8255 C   0  0  0  0  0  0
  -20.5113   22.4749  -12.7670 C   0  0  0  0  0  0
  -21.2515   23.7959  -12.6596 N   0  0  0  0  0  0
  -21.9360   24.5519  -11.7716 C   0  0  0  0  0  0
  -22.2070   26.1971  -12.0832 S   0  0  0  0  0  0
  -22.5881   24.0960  -10.6976 N   0  0  0  0  0  0
  -22.9159   22.7455  -10.3536 C   0  0  0  0  0  0
  -24.2467   22.3736   -9.6321 C   0  0  0  0  0  0
  -24.9898   22.8400   -8.3498 C   0  0  0  0  0  0
  -24.3544   22.7478   -7.1580 O   0  0  0  0  0  0
  -20.1214   22.1253  -14.0925 C   0  0  0  0  0  0
  -19.8852   20.7389  -14.5373 C   0  0  0  0  0  0
  -21.3339   24.2830  -13.5508 H   0  0  0  0  0  0
  -22.8948   24.8217  -10.0522 H   0  0  0  0  0  0
  -23.5681   23.4326   -7.3980 H   0  0  0  0  0  0
  1  2  1  0  0  0
  2  3  1  0  0  0
  3  4  1  0  0  0
  4  5  2  0  0  0
  4 17  1  0  0  0
  5  6  1  0  0  0
  6  7  2  0  0  0
  7  8  1  0  0  0
  7 16  1  0  0  0
  8  9  1  0  0  0
  8 18  1  0  0  0
  9 10  2  0  0  0
  9 11  1  0  0  0
 11 12  1  0  0  0
 11 19  1  0  0  0
 12 13  1  0  0  0
 13 14  1  0  0  0
 14 15  1  0  0  0
 15 20  1  0  0  0
 16 17  2  0  0  0
M  END
>  <CHROM.0>
-172.06557526,67.15868184,-75.01070132,64.12924594,-30.37765413,59.37143147
-36.40273291,-161.15435414

>  <CHROM.1>
66.33405622,23.67989100,8.89829915,-144.39361646,-52.61826691,-57.98258459
63.09520285,-21.84870454,22.04315035,-11.85502285,0.86036592,-0.91991649
-3.11512540

>  <Name>
F0807-0830

>  <RI>
2.85679e+07

>  <Rbt.Current_Directory>
/home/adria/Escritorio/rDock_CMTR_LC/2pxcA_model/inputs_sah

>  <Rbt.Executable>
rbdock ($Id: //depot/dev/client3/rdock/2013.1/src/exe/rbdock.cxx#4 $)

>  <Rbt.Library>
libRbt.so (2013.1, Build901 2013/11/27)

>  <Rbt.Parameter_File>
/home/adria/Escritorio/rDock_2013.1_src/data/scripts/dock.prm

>  <Rbt.Receptor>
sah_rdock.prm

>  <SCORE>
-65.6175

>  <SCORE.INTER>
-16.0643

>  <SCORE.INTER.CONST>
1

>  <SCORE.INTER.POLAR>
-3.45776

>  <SCORE.INTER.REPUL>
0.0611494

>  <SCORE.INTER.ROT>
6

>  <SCORE.INTER.VDW>
-16.0137

>  <SCORE.INTER.norm>
-0.944961

>  <SCORE.INTRA>
-44.2859

>  <SCORE.INTRA.DIHEDRAL>
-5.89966

>  <SCORE.INTRA.DIHEDRAL.0>
10.5783

>  <SCORE.INTRA.POLAR>
0

>  <SCORE.INTRA.POLAR.0>
0

>  <SCORE.INTRA.REPUL>
0

>  <SCORE.INTRA.REPUL.0>
0

>  <SCORE.INTRA.VDW>
-41.3361

>  <SCORE.INTRA.VDW.0>
41.073

>  <SCORE.INTRA.norm>
-2.60505

>  <SCORE.RESTR>
0

>  <SCORE.RESTR.CAVITY>
0

>  <SCORE.RESTR.norm>
0

>  <SCORE.SYSTEM>
-5.26723

>  <SCORE.SYSTEM.CONST>
0

>  <SCORE.SYSTEM.DIHEDRAL>
6.40638

>  <SCORE.SYSTEM.POLAR>
-3.29315

>  <SCORE.SYSTEM.VDW>
2.72631

>  <SCORE.SYSTEM.norm>
-0.309837

>  <SCORE.heavy>
17

>  <SCORE.norm>
-3.85985

$$$$
F0807-0830
  rDOCK(R)          3D
libRbt.so/2013.1/901 2013/11/27
 20 20  0  0  0  0  0  0  0  0999 V2000
  -23.7031   16.5526  -13.6282 C   0  0  0  0  0  0
  -23.3318   17.5184  -12.5131 C   0  0  0  0  0  0
  -22.3282   18.4723  -12.9775 O   0  0  0  0  0  0
  -21.7633   19.4822  -12.1881 C   0  0  0  0  0  0
  -22.6391   20.1187  -11.2315 C   0  0  0  0  0  0
  -22.3572   21.4777  -10.6642 C   0  0  0  0  0  0
  -21.2524   22.2422  -11.1112 C   0  0  0  0  0  0
  -21.0933   23.7517  -11.1376 N   0  0  0  0  0  0
  -21.7449   24.8869  -10.7981 C   0  0  0  0  0  0
  -20.8969   26.3502  -10.6686 S   0  0  0  0  0  0
  -23.0705   25.0257  -10.6981 N   0  0  0  0  0  0
  -24.1011   24.1302  -11.1287 C   0  0  0  0  0  0
  -24.9969   23.3504  -10.1188 C   0  0  0  0  0  0
  -25.9554   23.7263   -8.9551 C   0  0  0  0  0  0
  -26.5067   22.7336   -8.2180 O   0  0  0  0  0  0
  -20.3262   21.5386  -11.9346 C   0  0  0  0  0  0
  -20.5795   20.1948  -12.4876 C   0  0  0  0  0  0
  -20.2485   24.0574  -11.6185 H   0  0  0  0  0  0
  -23.3707   25.8964  -10.2635 H   0  0  0  0  0  0
  -27.0201   23.3757   -7.5332 H   0  0  0  0  0  0
  1  2  1  0  0  0
  2  3  1  0  0  0
  3  4  1  0  0  0
  4  5  2  0  0  0
  4 17  1  0  0  0
  5  6  1  0  0  0
  6  7  2  0  0  0
  7  8  1  0  0  0
  7 16  1  0  0  0
  8  9  1  0  0  0
  8 18  1  0  0  0
  9 10  2  0  0  0
  9 11  1  0  0  0
 11 12  1  0  0  0
 11 19  1  0  0  0
 12 13  1  0  0  0
 13 14  1  0  0  0
 14 15  1  0  0  0
 15 20  1  0  0  0
 16 17  2  0  0  0
M  END
>  <CHROM.0>
-62.12257453,-167.94205641,73.90695735,64.71998717,168.24507155,62.54422894
-156.57378487,-162.02467930

>  <CHROM.1>
-179.15321807,-36.28810320,2.05261914,110.68987068,57.71202721,-175.30692032
177.08220605,-22.70000516,22.17252536,-11.13936371,1.56202855,-0.41938947
-2.80438953

>  <Name>
F0807-0830

>  <RI>
2.85679e+07

>  <Rbt.Current_Directory>
/home/adria/Escritorio/rDock_CMTR_LC/2pxcA_model/inputs_sah

>  <Rbt.Executable>
rbdock ($Id: //depot/dev/client3/rdock/2013.1/src/exe/rbdock.cxx#4 $)

>  <Rbt.Library>
libRbt.so (2013.1, Build901 2013/11/27)

>  <Rbt.Parameter_File>
/home/adria/Escritorio/rDock_2013.1_src/data/scripts/dock.prm

>  <Rbt.Receptor>
sah_rdock.prm

>  <SCORE>
-57.9421

>  <SCORE.INTER>
-10.5726

>  <SCORE.INTER.CONST>
1

>  <SCORE.INTER.POLAR>
-2.26132

>  <SCORE.INTER.REPUL>
0.000702902

>  <SCORE.INTER.ROT>
6

>  <SCORE.INTER.VDW>
-14.2876

>  <SCORE.INTER.norm>
-0.621918

>  <SCORE.INTRA>
-45.5174

>  <SCORE.INTRA.DIHEDRAL>
-6.65664

>  <SCORE.INTRA.DIHEDRAL.0>
10.5783

>  <SCORE.INTRA.POLAR>
0

>  <SCORE.INTRA.POLAR.0>
0

>  <SCORE.INTRA.REPUL>
0

>  <SCORE.INTRA.REPUL.0>
0

>  <SCORE.INTRA.VDW>
-42.189

>  <SCORE.INTRA.VDW.0>
41.073

>  <SCORE.INTRA.norm>
-2.67749

>  <SCORE.RESTR>
0

>  <SCORE.RESTR.CAVITY>
0

>  <SCORE.RESTR.norm>
0

>  <SCORE.SYSTEM>
-1.85212

>  <SCORE.SYSTEM.CONST>
0

>  <SCORE.SYSTEM.DIHEDRAL>
3.60868

>  <SCORE.SYSTEM.POLAR>
-3.73634

>  <SCORE.SYSTEM.VDW>
9.04709

>  <SCORE.SYSTEM.norm>
-0.108948

>  <SCORE.heavy>
17

>  <SCORE.norm>
-3.40836

$$$$
F0807-0830
  rDOCK(R)          3D
libRbt.so/2013.1/901 2013/11/27
 20 20  0  0  0  0  0  0  0  0999 V2000
  -22.6530   17.4248  -13.6363 C   0  0  0  0  0  0
  -21.4152   17.6696  -12.7866 C   0  0  0  0  0  0
  -20.6042   18.7388  -13.3628 O   0  0  0  0  0  0
  -21.0106   20.0745  -13.4757 C   0  0  0  0  0  0
  -20.0709   20.9848  -14.0887 C   0  0  0  0  0  0
  -20.1298   22.4672  -13.8715 C   0  0  0  0  0  0
  -21.0669   23.0388  -12.9771 C   0  0  0  0  0  0
  -20.9578   24.3316  -12.1889 N   0  0  0  0  0  0
  -21.7231   25.2427  -11.5463 C   0  0  0  0  0  0
  -21.0189   26.3198  -10.4412 S   0  0  0  0  0  0
  -23.0066   25.5077  -11.8083 N   0  0  0  0  0  0
  -23.7979   25.0928  -12.9269 C   0  0  0  0  0  0
  -24.7080   23.8282  -12.8750 C   0  0  0  0  0  0
  -26.0158   23.4231  -12.1403 C   0  0  0  0  0  0
  -27.1682   24.0554  -12.4641 O   0  0  0  0  0  0
  -22.0727   22.1458  -12.5060 C   0  0  0  0  0  0
  -22.0398   20.6874  -12.7246 C   0  0  0  0  0  0
  -20.0099   24.7046  -12.1597 H   0  0  0  0  0  0
  -23.4657   26.0932  -11.1129 H   0  0  0  0  0  0
  -26.8600   25.0249  -12.1324 H   0  0  0  0  0  0
  1  2  1  0  0  0
  2  3  1  0  0  0
  3  4  1  0  0  0
  4  5  2  0  0  0
  4 17  1  0  0  0
  5  6  1  0  0  0
  6  7  2  0  0  0
  7  8  1  0  0  0
  7 16  1  0  0  0
  8  9  1  0  0  0
  8 18  1  0  0  0
  9 10  2  0  0  0
  9 11  1  0  0  0
 11 12  1  0  0  0
 11 19  1  0  0  0
 12 13  1  0  0  0
 13 14  1  0  0  0
 14 15  1  0  0  0
 15 20  1  0  0  0
 16 17  2  0  0  0
M  END
>  <CHROM.0>
-54.71111584,68.29827032,110.72778271,63.91330460,-30.71136387,64.78840938
-157.25231953,-163.55486415

>  <CHROM.1>
64.94588564,-179.36440283,160.12132668,95.22951601,69.02268959,67.22010478
-63.99874176,-22.31258612,22.69323062,-12.52324895,1.31627274,0.05313789
-2.85862213

>  <Name>
F0807-0830

>  <RI>
2.85679e+07

>  <Rbt.Current_Directory>
/home/adria/Escritorio/rDock_CMTR_LC/2pxcA_model/inputs_sah

>  <Rbt.Executable>
rbdock ($Id: //depot/dev/client3/rdock/2013.1/src/exe/rbdock.cxx#4 $)

>  <Rbt.Library>
libRbt.so (2013.1, Build901 2013/11/27)

>  <Rbt.Parameter_File>
/home/adria/Escritorio/rDock_2013.1_src/data/scripts/dock.prm

>  <Rbt.Receptor>
sah_rdock.prm

>  <SCORE>
-65.3311

>  <SCORE.INTER>
-13.6842

>  <SCORE.INTER.CONST>
1

>  <SCORE.INTER.POLAR>
-2.11256

>  <SCORE.INTER.REPUL>
0

>  <SCORE.INTER.ROT>
6

>  <SCORE.INTER.VDW>
-17.9015

>  <SCORE.INTER.norm>
-0.804951

>  <SCORE.INTRA>
-44.6406

>  <SCORE.INTRA.DIHEDRAL>
-4.64004

>  <SCORE.INTRA.DIHEDRAL.0>
10.5783

>  <SCORE.INTRA.POLAR>
0

>  <SCORE.INTRA.POLAR.0>
0

>  <SCORE.INTRA.REPUL>
0

>  <SCORE.INTRA.REPUL.0>
0

>  <SCORE.INTRA.VDW>
-42.3206

>  <SCORE.INTRA.VDW.0>
41.073

>  <SCORE.INTRA.norm>
-2.62592

>  <SCORE.RESTR>
0

>  <SCORE.RESTR.CAVITY>
0

>  <SCORE.RESTR.norm>
0

>  <SCORE.SYSTEM>
-7.00631

>  <SCORE.SYSTEM.CONST>
0

>  <SCORE.SYSTEM.DIHEDRAL>
8.97892

>  <SCORE.SYSTEM.POLAR>
-4.33541

>  <SCORE.SYSTEM.VDW>
3.24462

>  <SCORE.SYSTEM.norm>
-0.412136

>  <SCORE.heavy>
17

>  <SCORE.norm>
-3.84301

$$$$
F0807-0830
  rDOCK(R)          3D
libRbt.so/2013.1/901 2013/11/27
 20 20  0  0  0  0  0  0  0  0999 V2000
  -24.1514   19.5407  -14.1495 C   0  0  0  0  0  0
  -22.9689   18.8879  -14.8493 C   0  0  0  0  0  0
  -21.8443   18.7487  -13.9281 O   0  0  0  0  0  0
  -21.1126   19.8183  -13.3965 C   0  0  0  0  0  0
  -21.1704   19.9898  -11.9631 C   0  0  0  0  0  0
  -20.8594   21.2966  -11.2970 C   0  0  0  0  0  0
  -20.5758   22.4564  -12.0582 C   0  0  0  0  0  0
  -20.7959   23.9115  -11.6857 N   0  0  0  0  0  0
  -21.3304   24.6813  -10.7108 C   0  0  0  0  0  0
  -20.9201   26.3234  -10.6003 S   0  0  0  0  0  0
  -22.3102   24.3171   -9.8779 N   0  0  0  0  0  0
  -23.1657   23.1713   -9.9460 C   0  0  0  0  0  0
  -24.6972   23.2626   -9.6699 C   0  0  0  0  0  0
  -25.5948   23.5063   -8.4252 C   0  0  0  0  0  0
  -25.4911   22.6628   -7.3714 O   0  0  0  0  0  0
  -20.3764   22.2294  -13.4510 C   0  0  0  0  0  0
  -20.6610   20.9460  -14.1199 C   0  0  0  0  0  0
  -20.5108   24.5604  -12.4180 H   0  0  0  0  0  0
  -22.4616   24.9578   -9.1009 H   0  0  0  0  0  0
  -26.2758   23.1073   -6.7956 H   0  0  0  0  0  0
  1  2  1  0  0  0
  2  3  1  0  0  0
  3  4  1  0  0  0
  4  5  2  0  0  0
  4 17  1  0  0  0
  5  6  1  0  0  0
  6  7  2  0  0  0
  7  8  1  0  0  0
  7 16  1  0  0  0
  8  9  1  0  0  0
  8 18  1  0  0  0
  9 10  2  0  0  0
  9 11  1  0  0  0
 11 12  1  0  0  0
 11 19  1  0  0  0
 12 13  1  0  0  0
 13 14  1  0  0  0
 14 15  1  0  0  0
 15 20  1  0  0  0
 16 17  2  0  0  0
M  END
>  <CHROM.0>
-58.62868854,-71.11142983,111.76178439,66.58302004,-29.89325413,-175.84901478
-156.75704201,-160.54485795

>  <CHROM.1>
-67.49487040,116.62576814,-5.00491772,-136.83925531,-70.09165538,-58.32954061
-176.31363392,-22.23595873,22.40558971,-11.48707601,1.34873325,-0.60083168
-2.51788896

>  <Name>
F0807-0830

>  <RI>
2.85679e+07

>  <Rbt.Current_Directory>
/home/adria/Escritorio/rDock_CMTR_LC/2pxcA_model/inputs_sah

>  <Rbt.Executable>
rbdock ($Id: //depot/dev/client3/rdock/2013.1/src/exe/rbdock.cxx#4 $)

>  <Rbt.Library>
libRbt.so (2013.1, Build901 2013/11/27)

>  <Rbt.Parameter_File>
/home/adria/Escritorio/rDock_2013.1_src/data/scripts/dock.prm

>  <Rbt.Receptor>
sah_rdock.prm

>  <SCORE>
-63.3603

>  <SCORE.INTER>
-11.36

>  <SCORE.INTER.CONST>
1

>  <SCORE.INTER.POLAR>
-2.18114

>  <SCORE.INTER.REPUL>
0

>  <SCORE.INTER.ROT>
6

>  <SCORE.INTER.VDW>
-15.3442

>  <SCORE.INTER.norm>
-0.668237

>  <SCORE.INTRA>
-44.492

>  <SCORE.INTRA.DIHEDRAL>
-3.68759

>  <SCORE.INTRA.DIHEDRAL.0>
10.5783

>  <SCORE.INTRA.POLAR>
0

>  <SCORE.INTRA.POLAR.0>
0

>  <SCORE.INTRA.REPUL>
0

>  <SCORE.INTRA.REPUL.0>
0

>  <SCORE.INTRA.VDW>
-42.6482

>  <SCORE.INTRA.VDW.0>
41.073

>  <SCORE.INTRA.norm>
-2.61717

>  <SCORE.RESTR>
0

>  <SCORE.RESTR.CAVITY>
0

>  <SCORE.RESTR.norm>
0

>  <SCORE.SYSTEM>
-7.50829

>  <SCORE.SYSTEM.CONST>
0

>  <SCORE.SYSTEM.DIHEDRAL>
9.62007

>  <SCORE.SYSTEM.POLAR>
-4.6677

>  <SCORE.SYSTEM.REPUL>
0.03499

>  <SCORE.SYSTEM.VDW>
3.3769

>  <SCORE.SYSTEM.norm>
-0.441664

>  <SCORE.heavy>
17

>  <SCORE.norm>
-3.72708

$$$$
F0807-0830
  rDOCK(R)          3D
libRbt.so/2013.1/901 2013/11/27
 20 20  0  0  0  0  0  0  0  0999 V2000
  -19.0984   18.4947  -16.8532 C   0  0  0  0  0  0
  -18.0162   19.5380  -17.0861 C   0  0  0  0  0  0
  -18.4507   20.8424  -16.5938 O   0  0  0  0  0  0
  -18.6889   21.1471  -15.2475 C   0  0  0  0  0  0
  -18.0915   20.2652  -14.2714 C   0  0  0  0  0  0
  -18.6053   20.1552  -12.8671 C   0  0  0  0  0  0
  -19.7655   20.8549  -12.4557 C   0  0  0  0  0  0
  -20.7555   20.4892  -11.3646 N   0  0  0  0  0  0
  -21.9208   20.9020  -10.8164 C   0  0  0  0  0  0
  -22.8305   19.8446   -9.8514 S   0  0  0  0  0  0
  -22.3844   22.1556  -10.8207 N   0  0  0  0  0  0
  -21.7021   23.3631  -11.1758 C   0  0  0  0  0  0
  -22.1668   24.7596  -10.6619 C   0  0  0  0  0  0
  -21.5784   26.1975  -10.6503 C   0  0  0  0  0  0
  -20.4998   26.4544   -9.8735 O   0  0  0  0  0  0
  -20.2435   21.8266  -13.3822 C   0  0  0  0  0  0
  -19.7384   21.9603  -14.7615 C   0  0  0  0  0  0
  -20.4465   19.7077  -10.7882 H   0  0  0  0  0  0
  -23.3526   22.2471  -10.5185 H   0  0  0  0  0  0
  -20.9750   26.2222   -8.9433 H   0  0  0  0  0  0
  1  2  1  0  0  0
  2  3  1  0  0  0
  3  4  1  0  0  0
  4  5  2  0  0  0
  4 17  1  0  0  0
  5  6  1  0  0  0
  6  7  2  0  0  0
  7  8  1  0  0  0
  7 16  1  0  0  0
  8  9  1  0  0  0
  8 18  1  0  0  0
  9 10  2  0  0  0
  9 11  1  0  0  0
 11 12  1  0  0  0
 11 19  1  0  0  0
 12 13  1  0  0  0
 13 14  1  0  0  0
 14 15  1  0  0  0
 15 20  1  0  0  0
 16 17  2  0  0  0
M  END
>  <CHROM.0>
179.20498714,-73.56806055,-47.50113134,61.86017534,167.59302448,175.47738405
83.74494788,-162.55769486

>  <CHROM.1>
65.65424147,19.36093945,-176.04079663,-157.39448885,168.49138135,-68.39053448
-61.75060707,-20.46801209,21.64523525,-12.62707468,0.71727812,-0.95927268
-2.90959879

>  <Name>
F0807-0830

>  <RI>
2.85679e+07

>  <Rbt.Current_Directory>
/home/adria/Escritorio/rDock_CMTR_LC/2pxcA_model/inputs_sah

>  <Rbt.Executable>
rbdock ($Id: //depot/dev/client3/rdock/2013.1/src/exe/rbdock.cxx#4 $)

>  <Rbt.Library>
libRbt.so (2013.1, Build901 2013/11/27)

>  <Rbt.Parameter_File>
/home/adria/Escritorio/rDock_2013.1_src/data/scripts/dock.prm

>  <Rbt.Receptor>
sah_rdock.prm

>  <SCORE>
-61.6225

>  <SCORE.INTER>
-15.729

>  <SCORE.INTER.CONST>
1

>  <SCORE.INTER.POLAR>
-2.37886

>  <SCORE.INTER.REPUL>
0

>  <SCORE.INTER.ROT>
6

>  <SCORE.INTER.VDW>
-19.0408

>  <SCORE.INTER.norm>
-0.925233

>  <SCORE.INTRA>
-43.6931

>  <SCORE.INTRA.DIHEDRAL>
-5.76508

>  <SCORE.INTRA.DIHEDRAL.0>
10.5783

>  <SCORE.INTRA.POLAR>
0

>  <SCORE.INTRA.POLAR.0>
0

>  <SCORE.INTRA.REPUL>
0

>  <SCORE.INTRA.REPUL.0>
0

>  <SCORE.INTRA.VDW>
-40.8105

>  <SCORE.INTRA.VDW.0>
41.073

>  <SCORE.INTRA.norm>
-2.57018

>  <SCORE.RESTR>
0

>  <SCORE.RESTR.CAVITY>
0

>  <SCORE.RESTR.norm>
0

>  <SCORE.SYSTEM>
-2.20041

>  <SCORE.SYSTEM.CONST>
0

>  <SCORE.SYSTEM.DIHEDRAL>
3.69867

>  <SCORE.SYSTEM.POLAR>
-3.90222

>  <SCORE.SYSTEM.REPUL>
0.0395342

>  <SCORE.SYSTEM.VDW>
9.02012

>  <SCORE.SYSTEM.norm>
-0.129436

>  <SCORE.heavy>
17

>  <SCORE.norm>
-3.62485

$$$$
F0807-0830
  rDOCK(R)          3D
libRbt.so/2013.1/901 2013/11/27
 20 20  0  0  0  0  0  0  0  0999 V2000
  -19.3967   12.4955  -19.4561 C   0  0  0  0  0  0
  -18.0369   13.1736  -19.5268 C   0  0  0  0  0  0
  -17.6687   13.7156  -18.2217 O   0  0  0  0  0  0
  -16.5423   14.5122  -17.9786 C   0  0  0  0  0  0
  -16.4910   15.1833  -16.7002 C   0  0  0  0  0  0
  -15.6428   16.3968  -16.4634 C   0  0  0  0  0  0
  -14.9127   16.9963  -17.5181 C   0  0  0  0  0  0
  -14.4896   18.4459  -17.6735 N   0  0  0  0  0  0
  -14.7454   19.6780  -17.1782 C   0  0  0  0  0  0
  -13.6460   20.9442  -17.4334 S   0  0  0  0  0  0
  -15.8926   20.0703  -16.6157 N   0  0  0  0  0  0
  -17.1594   19.4035  -16.6031 C   0  0  0  0  0  0
  -17.9783   19.2043  -15.2916 C   0  0  0  0  0  0
  -19.2782   18.4538  -14.8901 C   0  0  0  0  0  0
  -19.7316   18.5691  -13.6197 O   0  0  0  0  0  0
  -14.8583   16.2354  -18.7220 C   0  0  0  0  0  0
  -15.6727   15.0301  -18.9658 C   0  0  0  0  0  0
  -13.8343   18.5924  -18.4400 H   0  0  0  0  0  0
  -15.8435   20.9721  -16.1451 H   0  0  0  0  0  0
  -18.8416   18.2048  -13.1505 H   0  0  0  0  0  0
  1  2  1  0  0  0
  2  3  1  0  0  0
  3  4  1  0  0  0
  4  5  2  0  0  0
  4 17  1  0  0  0
  5  6  1  0  0  0
  6  7  2  0  0  0
  7  8  1  0  0  0
  7 16  1  0  0  0
  8  9  1  0  0  0
  8 18  1  0  0  0
  9 10  2  0  0  0
  9 11  1  0  0  0
 11 12  1  0  0  0
 11 19  1  0  0  0
 12 13  1  0  0  0
 13 14  1  0  0  0
 14 15  1  0  0  0
 15 20  1  0  0  0
 16 17  2  0  0  0
M  END
>  <CHROM.0>
-61.13279761,-70.79718905,-163.91727891,65.78267114,-30.37627683,-56.00310268
82.26824083,-161.86339878

>  <CHROM.1>
-173.39378358,167.40395485,-15.45277506,131.14190752,-173.71309283,-176.64718651
-57.51832671,-16.46956731,17.26676481,-17.19893860,1.98395269,-0.53420085
-2.61523181

>  <Name>
F0807-0830

>  <RI>
2.85679e+07

>  <Rbt.Current_Directory>
/home/adria/Escritorio/rDock_CMTR_LC/2pxcA_model/inputs_sah

>  <Rbt.Executable>
rbdock ($Id: //depot/dev/client3/rdock/2013.1/src/exe/rbdock.cxx#4 $)

>  <Rbt.Library>
libRbt.so (2013.1, Build901 2013/11/27)

>  <Rbt.Parameter_File>
/home/adria/Escritorio/rDock_2013.1_src/data/scripts/dock.prm

>  <Rbt.Receptor>
sah_rdock.prm

>  <SCORE>
-60.9501

>  <SCORE.INTER>
-8.59819

>  <SCORE.INTER.CONST>
1

>  <SCORE.INTER.POLAR>
-0.0406107

>  <SCORE.INTER.REPUL>
0

>  <SCORE.INTER.ROT>
6

>  <SCORE.INTER.VDW>
-19.8601

>  <SCORE.INTER.norm>
-0.505776

>  <SCORE.INTRA>
-45.0733

>  <SCORE.INTRA.DIHEDRAL>
-5.65916

>  <SCORE.INTRA.DIHEDRAL.0>
10.5783

>  <SCORE.INTRA.POLAR>
0

>  <SCORE.INTRA.POLAR.0>
0

>  <SCORE.INTRA.REPUL>
0

>  <SCORE.INTRA.REPUL.0>
0

>  <SCORE.INTRA.VDW>
-42.2437

>  <SCORE.INTRA.VDW.0>
41.073

>  <SCORE.INTRA.norm>
-2.65137

>  <SCORE.RESTR>
0

>  <SCORE.RESTR.CAVITY>
0

>  <SCORE.RESTR.norm>
0

>  <SCORE.SYSTEM>
-7.27863

>  <SCORE.SYSTEM.CONST>
0

>  <SCORE.SYSTEM.DIHEDRAL>
6.45639

>  <SCORE.SYSTEM.POLAR>
-3.90932

>  <SCORE.SYSTEM.REPUL>
0.0343668

>  <SCORE.SYSTEM.VDW>
2.61304

>  <SCORE.SYSTEM.norm>
-0.428155

>  <SCORE.heavy>
17

>  <SCORE.norm>
-3.5853

$$$$
F0807-0830
  rDOCK(R)          3D
libRbt.so/2013.1/901 2013/11/27
 20 20  0  0  0  0  0  0  0  0999 V2000
  -20.1774   17.3320  -14.4959 C   0  0  0  0  0  0
  -21.1570   18.2866  -15.1616 C   0  0  0  0  0  0
  -22.0408   18.8869  -14.1659 O   0  0  0  0  0  0
  -21.6243   19.7636  -13.1560 C   0  0  0  0  0  0
  -22.6619   20.3289  -12.3245 C   0  0  0  0  0  0
  -22.4656   21.5935  -11.5433 C   0  0  0  0  0  0
  -21.2702   22.3443  -11.6548 C   0  0  0  0  0  0
  -21.0656   23.8352  -11.4558 N   0  0  0  0  0  0
  -21.7456   24.9595  -11.1359 C   0  0  0  0  0  0
  -20.9095   26.3475  -10.6341 S   0  0  0  0  0  0
  -23.0530   25.1616  -11.3259 N   0  0  0  0  0  0
  -23.9795   24.3817  -12.0894 C   0  0  0  0  0  0
  -25.5024   24.3451  -11.7584 C   0  0  0  0  0  0
  -26.3649   24.0483  -10.5005 C   0  0  0  0  0  0
  -26.3873   24.9559   -9.4963 O   0  0  0  0  0  0
  -20.2131   21.6938  -12.3553 C   0  0  0  0  0  0
  -20.3840   20.4410  -13.1148 C   0  0  0  0  0  0
  -20.1231   24.1452  -11.6883 H   0  0  0  0  0  0
  -23.4214   25.9926  -10.8666 H   0  0  0  0  0  0
  -27.0084   24.3814   -8.8412 H   0  0  0  0  0  0
  1  2  1  0  0  0
  2  3  1  0  0  0
  3  4  1  0  0  0
  4  5  2  0  0  0
  4 17  1  0  0  0
  5  6  1  0  0  0
  6  7  2  0  0  0
  7  8  1  0  0  0
  7 16  1  0  0  0
  8  9  1  0  0  0
  8 18  1  0  0  0
  9 10  2  0  0  0
  9 11  1  0  0  0
 11 12  1  0  0  0
 11 19  1  0  0  0
 12 13  1  0  0  0
 13 14  1  0  0  0
 14 15  1  0  0  0
 15 20  1  0  0  0
 16 17  2  0  0  0
M  END
>  <CHROM.0>
-63.01023818,-77.06820954,-6.05553998,61.44645981,-31.55138538,178.47690243
-157.78163922,-157.70740702

>  <CHROM.1>
66.04148382,175.68605255,0.53174072,153.11884117,-53.47271725,72.01663141
-176.95354138,-22.37379954,22.58854496,-12.01801336,1.20324470,-0.13865788
-2.71497540

>  <Name>
F0807-0830

>  <RI>
2.85679e+07

>  <Rbt.Current_Directory>
/home/adria/Escritorio/rDock_CMTR_LC/2pxcA_model/inputs_sah

>  <Rbt.Executable>
rbdock ($Id: //depot/dev/client3/rdock/2013.1/src/exe/rbdock.cxx#4 $)

>  <Rbt.Library>
libRbt.so (2013.1, Build901 2013/11/27)

>  <Rbt.Parameter_File>
/home/adria/Escritorio/rDock_2013.1_src/data/scripts/dock.prm

>  <Rbt.Receptor>
sah_rdock.prm

>  <SCORE>
-67.5767

>  <SCORE.INTER>
-14.6563

>  <SCORE.INTER.CONST>
1

>  <SCORE.INTER.POLAR>
-3.1187

>  <SCORE.INTER.REPUL>
0

>  <SCORE.INTER.ROT>
6

>  <SCORE.INTER.VDW>
-15.4527

>  <SCORE.INTER.norm>
-0.862133

>  <SCORE.INTRA>
-45.4848

>  <SCORE.INTRA.DIHEDRAL>
-6.62847

>  <SCORE.INTRA.DIHEDRAL.0>
10.5783

>  <SCORE.INTRA.POLAR>
0

>  <SCORE.INTRA.POLAR.0>
0

>  <SCORE.INTRA.REPUL>
0

>  <SCORE.INTRA.REPUL.0>
0

>  <SCORE.INTRA.VDW>
-42.1706

>  <SCORE.INTRA.VDW.0>
41.073

>  <SCORE.INTRA.norm>
-2.67558

>  <SCORE.RESTR>
0

>  <SCORE.RESTR.CAVITY>
0

>  <SCORE.RESTR.norm>
0

>  <SCORE.SYSTEM>
-7.43567

>  <SCORE.SYSTEM.CONST>
0

>  <SCORE.SYSTEM.DIHEDRAL>
10.0009

>  <SCORE.SYSTEM.POLAR>
-4.70191

>  <SCORE.SYSTEM.REPUL>
0.044977

>  <SCORE.SYSTEM.VDW>
3.32548

>  <SCORE.SYSTEM.norm>
-0.437392

>  <SCORE.heavy>
17

>  <SCORE.norm>
-3.9751

$$$$
F0807-0830
  rDOCK(R)          3D
libRbt.so/2013.1/901 2013/11/27
 20 20  0  0  0  0  0  0  0  0999 V2000
  -23.2083   17.4181  -15.7973 C   0  0  0  0  0  0
  -22.6223   18.1275  -14.5860 C   0  0  0  0  0  0
  -21.8265   19.2783  -15.0044 O   0  0  0  0  0  0
  -21.1673   20.1517  -14.1299 C   0  0  0  0  0  0
  -21.6997   20.2460  -12.7900 C   0  0  0  0  0  0
  -21.4373   21.4255  -11.9024 C   0  0  0  0  0  0
  -20.7192   22.5509  -12.3744 C   0  0  0  0  0  0
  -20.8183   23.9963  -11.9212 N   0  0  0  0  0  0
  -21.3886   24.7654  -10.9662 C   0  0  0  0  0  0
  -20.8100   26.3333  -10.6765 S   0  0  0  0  0  0
  -22.5088   24.4760  -10.2970 N   0  0  0  0  0  0
  -23.4738   23.4526  -10.5635 C   0  0  0  0  0  0
  -24.5206   23.0031   -9.4994 C   0  0  0  0  0  0
  -24.4804   22.5635   -8.0097 C   0  0  0  0  0  0
  -23.6812   21.5295   -7.6563 O   0  0  0  0  0  0
  -20.0798   22.3723  -13.6354 C   0  0  0  0  0  0
  -20.3130   21.2107  -14.5141 C   0  0  0  0  0  0
  -20.3625   24.6483  -12.5581 H   0  0  0  0  0  0
  -22.6901   25.0815   -9.4984 H   0  0  0  0  0  0
  -22.7569   22.0306   -7.8550 H   0  0  0  0  0  0
  1  2  1  0  0  0
  2  3  1  0  0  0
  3  4  1  0  0  0
  4  5  2  0  0  0
  4 17  1  0  0  0
  5  6  1  0  0  0
  6  7  2  0  0  0
  7  8  1  0  0  0
  7 16  1  0  0  0
  8  9  1  0  0  0
  8 18  1  0  0  0
  9 10  2  0  0  0
  9 11  1  0  0  0
 11 12  1  0  0  0
 11 19  1  0  0  0
 12 13  1  0  0  0
 13 14  1  0  0  0
 14 15  1  0  0  0
 15 20  1  0  0  0
 16 17  2  0  0  0
M  END
>  <CHROM.0>
-60.04759727,-72.03128805,72.71459318,64.68813322,-30.50507483,-177.78642666
-157.25946232,-161.06532758

>  <CHROM.1>
179.09945699,-24.64463542,8.23481046,163.79483417,-50.35439064,-55.61271272
67.17094066,-22.01235955,22.22539923,-11.87385322,1.50066705,-0.83763525
-2.45710235

>  <Name>
F0807-0830

>  <RI>
2.85679e+07

>  <Rbt.Current_Directory>
/home/adria/Escritorio/rDock_CMTR_LC/2pxcA_model/inputs_sah

>  <Rbt.Executable>
rbdock ($Id: //depot/dev/client3/rdock/2013.1/src/exe/rbdock.cxx#4 $)

>  <Rbt.Library>
libRbt.so (2013.1, Build901 2013/11/27)

>  <Rbt.Parameter_File>
/home/adria/Escritorio/rDock_2013.1_src/data/scripts/dock.prm

>  <Rbt.Receptor>
sah_rdock.prm

>  <SCORE>
-66.3464

>  <SCORE.INTER>
-13.3444

>  <SCORE.INTER.CONST>
1

>  <SCORE.INTER.POLAR>
-2.95005

>  <SCORE.INTER.REPUL>
0.0092919

>  <SCORE.INTER.ROT>
6

>  <SCORE.INTER.VDW>
-14.7606

>  <SCORE.INTER.norm>
-0.784962

>  <SCORE.INTRA>
-44.9982

>  <SCORE.INTRA.DIHEDRAL>
-6.70784

>  <SCORE.INTRA.DIHEDRAL.0>
10.5783

>  <SCORE.INTRA.POLAR>
0

>  <SCORE.INTRA.POLAR.0>
0

>  <SCORE.INTRA.REPUL>
0

>  <SCORE.INTRA.REPUL.0>
0

>  <SCORE.INTRA.VDW>
-41.6443

>  <SCORE.INTRA.VDW.0>
41.073

>  <SCORE.INTRA.norm>
-2.64695

>  <SCORE.RESTR>
0

>  <SCORE.RESTR.CAVITY>
0

>  <SCORE.RESTR.norm>
0

>  <SCORE.SYSTEM>
-8.00386

>  <SCORE.SYSTEM.CONST>
0

>  <SCORE.SYSTEM.DIHEDRAL>
6.338

>  <SCORE.SYSTEM.POLAR>
-4.11444

>  <SCORE.SYSTEM.REPUL>
0.0367599

>  <SCORE.SYSTEM.VDW>
2.63244

>  <SCORE.SYSTEM.norm>
-0.470815

>  <SCORE.heavy>
17

>  <SCORE.norm>
-3.90273

$$$$
F0807-0830
  rDOCK(R)          3D
libRbt.so/2013.1/901 2013/11/27
 20 20  0  0  0  0  0  0  0  0999 V2000
  -19.5320   16.6136  -16.0188 C   0  0  0  0  0  0
  -19.0332   18.0151  -15.7013 C   0  0  0  0  0  0
  -19.8127   18.5998  -14.6135 O   0  0  0  0  0  0
  -19.5889   19.8695  -14.0659 C   0  0  0  0  0  0
  -19.9025   20.0319  -12.6649 C   0  0  0  0  0  0
  -20.1704   21.3737  -12.0518 C   0  0  0  0  0  0
  -20.2132   22.5454  -12.8457 C   0  0  0  0  0  0
  -20.9840   23.8297  -12.5988 N   0  0  0  0  0  0
  -21.7301   24.4469  -11.6549 C   0  0  0  0  0  0
  -22.0163   26.1160  -11.7515 S   0  0  0  0  0  0
  -22.4301   23.8386  -10.6924 N   0  0  0  0  0  0
  -22.7492   22.4496  -10.5568 C   0  0  0  0  0  0
  -23.5989   21.9065   -9.3680 C   0  0  0  0  0  0
  -24.1022   20.5129   -8.9002 C   0  0  0  0  0  0
  -23.1919   19.5794   -8.5358 O   0  0  0  0  0  0
  -19.7546   22.3828  -14.1852 C   0  0  0  0  0  0
  -19.4701   21.0723  -14.7995 C   0  0  0  0  0  0
  -21.0278   24.4347  -13.4176 H   0  0  0  0  0  0
  -22.7854   24.4639   -9.9713 H   0  0  0  0  0  0
  -23.9019   18.8051   -8.3328 H   0  0  0  0  0  0
  1  2  1  0  0  0
  2  3  1  0  0  0
  3  4  1  0  0  0
  4  5  2  0  0  0
  4 17  1  0  0  0
  5  6  1  0  0  0
  6  7  2  0  0  0
  7  8  1  0  0  0
  7 16  1  0  0  0
  8  9  1  0  0  0
  8 18  1  0  0  0
  9 10  2  0  0  0
  9 11  1  0  0  0
 11 12  1  0  0  0
 11 19  1  0  0  0
 12 13  1  0  0  0
 13 14  1  0  0  0
 14 15  1  0  0  0
 15 20  1  0  0  0
 16 17  2  0  0  0
M  END
>  <CHROM.0>
-172.96916660,-160.91275697,114.95574394,67.70326367,-27.08225677,59.01214529
-35.88294351,-155.44690508

>  <CHROM.1>
178.70165309,-148.75421589,8.42654277,-179.26078392,-178.73806047,64.00622295
-178.00172704,-21.19348598,21.64089573,-12.31816397,0.75298005,-0.96664079
3.11961235

>  <Name>
F0807-0830

>  <RI>
2.85679e+07

>  <Rbt.Current_Directory>
/home/adria/Escritorio/rDock_CMTR_LC/2pxcA_model/inputs_sah

>  <Rbt.Executable>
rbdock ($Id: //depot/dev/client3/rdock/2013.1/src/exe/rbdock.cxx#4 $)

>  <Rbt.Library>
libRbt.so (2013.1, Build901 2013/11/27)

>  <Rbt.Parameter_File>
/home/adria/Escritorio/rDock_2013.1_src/data/scripts/dock.prm

>  <Rbt.Receptor>
sah_rdock.prm

>  <SCORE>
-64.3567

>  <SCORE.INTER>
-14.1778

>  <SCORE.INTER.CONST>
1

>  <SCORE.INTER.POLAR>
-3.26682

>  <SCORE.INTER.REPUL>
0

>  <SCORE.INTER.ROT>
6

>  <SCORE.INTER.VDW>
-14.4706

>  <SCORE.INTER.norm>
-0.833988

>  <SCORE.INTRA>
-45.2263

>  <SCORE.INTRA.DIHEDRAL>
-5.66048

>  <SCORE.INTRA.DIHEDRAL.0>
10.5783

>  <SCORE.INTRA.POLAR>
0

>  <SCORE.INTRA.POLAR.0>
0

>  <SCORE.INTRA.REPUL>
0

>  <SCORE.INTRA.REPUL.0>
0

>  <SCORE.INTRA.VDW>
-42.3961

>  <SCORE.INTRA.VDW.0>
41.073

>  <SCORE.INTRA.norm>
-2.66037

>  <SCORE.RESTR>
0

>  <SCORE.RESTR.CAVITY>
0

>  <SCORE.RESTR.norm>
0

>  <SCORE.SYSTEM>
-4.95262

>  <SCORE.SYSTEM.CONST>
0

>  <SCORE.SYSTEM.DIHEDRAL>
11.9544

>  <SCORE.SYSTEM.POLAR>
-4.3044

>  <SCORE.SYSTEM.VDW>
3.70515

>  <SCORE.SYSTEM.norm>
-0.291331

>  <SCORE.heavy>
17

>  <SCORE.norm>
-3.78569

$$$$
F0807-0830
  rDOCK(R)          3D
libRbt.so/2013.1/901 2013/11/27
 20 20  0  0  0  0  0  0  0  0999 V2000
  -19.8377   17.1220  -14.4249 C   0  0  0  0  0  0
  -20.6413   18.3933  -14.1965 C   0  0  0  0  0  0
  -21.0449   18.4972  -12.7968 O   0  0  0  0  0  0
  -21.7933   19.5523  -12.2595 C   0  0  0  0  0  0
  -22.9572   19.9647  -13.0096 C   0  0  0  0  0  0
  -23.5759   21.3212  -12.8512 C   0  0  0  0  0  0
  -22.9888   22.2998  -12.0131 C   0  0  0  0  0  0
  -23.0656   23.8118  -12.1238 N   0  0  0  0  0  0
  -22.7347   24.9367  -11.4500 C   0  0  0  0  0  0
  -22.6808   26.4282  -12.2561 S   0  0  0  0  0  0
  -22.5882   25.0385  -10.1254 N   0  0  0  0  0  0
  -22.9525   24.0995   -9.1080 C   0  0  0  0  0  0
  -24.4197   23.6070   -8.9214 C   0  0  0  0  0  0
  -25.4519   22.8232   -9.7783 C   0  0  0  0  0  0
  -25.1898   21.5338  -10.0970 O   0  0  0  0  0  0
  -21.9389   21.8240  -11.1748 C   0  0  0  0  0  0
  -21.3299   20.4869  -11.3052 C   0  0  0  0  0  0
  -23.5873   24.1281  -12.9400 H   0  0  0  0  0  0
  -22.1681   25.9125   -9.8146 H   0  0  0  0  0  0
  -26.0523   21.3945  -10.7148 H   0  0  0  0  0  0
  1  2  1  0  0  0
  2  3  1  0  0  0
  3  4  1  0  0  0
  4  5  2  0  0  0
  4 17  1  0  0  0
  5  6  1  0  0  0
  6  7  2  0  0  0
  7  8  1  0  0  0
  7 16  1  0  0  0
  8  9  1  0  0  0
  8 18  1  0  0  0
  9 10  2  0  0  0
  9 11  1  0  0  0
 11 12  1  0  0  0
 11 19  1  0  0  0
 12 13  1  0  0  0
 13 14  1  0  0  0
 14 15  1  0  0  0
 15 20  1  0  0  0
 16 17  2  0  0  0
M  END
>  <CHROM.0>
-67.85766602,-73.10843583,-45.66504005,65.23305233,-30.27780235,179.12629881
-156.85597624,-163.21449274

>  <CHROM.1>
179.84832250,46.29024132,172.14283978,-58.81672194,62.24607716,65.20333447
-176.07017353,-22.67793589,22.17156125,-11.67327240,-1.07293139,0.82082294
0.01693469

>  <Name>
F0807-0830

>  <RI>
2.85679e+07

>  <Rbt.Current_Directory>
/home/adria/Escritorio/rDock_CMTR_LC/2pxcA_model/inputs_sah

>  <Rbt.Executable>
rbdock ($Id: //depot/dev/client3/rdock/2013.1/src/exe/rbdock.cxx#4 $)

>  <Rbt.Library>
libRbt.so (2013.1, Build901 2013/11/27)

>  <Rbt.Parameter_File>
/home/adria/Escritorio/rDock_2013.1_src/data/scripts/dock.prm

>  <Rbt.Receptor>
sah_rdock.prm

>  <SCORE>
-62.7784

>  <SCORE.INTER>
-9.30413

>  <SCORE.INTER.CONST>
1

>  <SCORE.INTER.POLAR>
-2.31337

>  <SCORE.INTER.REPUL>
0.00602709

>  <SCORE.INTER.ROT>
6

>  <SCORE.INTER.VDW>
-12.8688

>  <SCORE.INTER.norm>
-0.547302

>  <SCORE.INTRA>
-45.7875

>  <SCORE.INTRA.DIHEDRAL>
-3.73994

>  <SCORE.INTRA.DIHEDRAL.0>
10.5783

>  <SCORE.INTRA.POLAR>
0

>  <SCORE.INTRA.POLAR.0>
0

>  <SCORE.INTRA.REPUL>
0

>  <SCORE.INTRA.REPUL.0>
0

>  <SCORE.INTRA.VDW>
-43.9175

>  <SCORE.INTRA.VDW.0>
41.073

>  <SCORE.INTRA.norm>
-2.69338

>  <SCORE.RESTR>
0

>  <SCORE.RESTR.CAVITY>
0

>  <SCORE.RESTR.norm>
0

>  <SCORE.SYSTEM>
-7.68673

>  <SCORE.SYSTEM.CONST>
0

>  <SCORE.SYSTEM.DIHEDRAL>
6.85103

>  <SCORE.SYSTEM.POLAR>
-4.07893

>  <SCORE.SYSTEM.REPUL>
0.0387286

>  <SCORE.SYSTEM.VDW>
2.56246

>  <SCORE.SYSTEM.norm>
-0.452161

>  <SCORE.heavy>
17

>  <SCORE.norm>
-3.69285

$$$$
F0807-0830
  rDOCK(R)          3D
libRbt.so/2013.1/901 2013/11/27
 20 20  0  0  0  0  0  0  0  0999 V2000
  -19.8082   19.2640  -15.9044 C   0  0  0  0  0  0
  -20.5699   18.2427  -15.0733 C   0  0  0  0  0  0
  -21.6354   18.8939  -14.3160 O   0  0  0  0  0  0
  -21.4293   19.7678  -13.2409 C   0  0  0  0  0  0
  -22.6056   20.3994  -12.6886 C   0  0  0  0  0  0
  -22.5374   21.6673  -11.8912 C   0  0  0  0  0  0
  -21.3127   22.3558  -11.7152 C   0  0  0  0  0  0
  -21.0841   23.8383  -11.4822 N   0  0  0  0  0  0
  -21.7502   24.9700  -11.1590 C   0  0  0  0  0  0
  -20.9008   26.3311  -10.6085 S   0  0  0  0  0  0
  -23.0477   25.2021  -11.3801 N   0  0  0  0  0  0
  -23.9684   24.4555  -12.1829 C   0  0  0  0  0  0
  -25.4111   24.1214  -11.6960 C   0  0  0  0  0  0
  -26.0385   23.4345  -10.4515 C   0  0  0  0  0  0
  -25.8348   23.9842   -9.2313 O   0  0  0  0  0  0
  -20.1535   21.6408  -12.1351 C   0  0  0  0  0  0
  -20.2017   20.3839  -12.9054 C   0  0  0  0  0  0
  -20.1297   24.1334  -11.6833 H   0  0  0  0  0  0
  -23.4119   26.0316  -10.9149 H   0  0  0  0  0  0
  -26.3504   24.8996   -9.4343 H   0  0  0  0  0  0
  1  2  1  0  0  0
  2  3  1  0  0  0
  3  4  1  0  0  0
  4  5  2  0  0  0
  4 17  1  0  0  0
  5  6  1  0  0  0
  6  7  2  0  0  0
  7  8  1  0  0  0
  7 16  1  0  0  0
  8  9  1  0  0  0
  8 18  1  0  0  0
  9 10  2  0  0  0
  9 11  1  0  0  0
 11 12  1  0  0  0
 11 19  1  0  0  0
 12 13  1  0  0  0
 13 14  1  0  0  0
 14 15  1  0  0  0
 15 20  1  0  0  0
 16 17  2  0  0  0
M  END
>  <CHROM.0>
-60.32921262,-76.21457126,75.99827713,63.76414976,-29.54568521,179.14005204
82.38238041,-162.94232508

>  <CHROM.1>
-69.33602857,175.02259914,13.22864085,136.20546535,-54.61699074,61.49432725
63.74598655,-22.21412289,22.60300420,-12.11432252,-1.16790639,0.24484480
0.47509681

>  <Name>
F0807-0830

>  <RI>
2.85679e+07

>  <Rbt.Current_Directory>
/home/adria/Escritorio/rDock_CMTR_LC/2pxcA_model/inputs_sah

>  <Rbt.Executable>
rbdock ($Id: //depot/dev/client3/rdock/2013.1/src/exe/rbdock.cxx#4 $)

>  <Rbt.Library>
libRbt.so (2013.1, Build901 2013/11/27)

>  <Rbt.Parameter_File>
/home/adria/Escritorio/rDock_2013.1_src/data/scripts/dock.prm

>  <Rbt.Receptor>
sah_rdock.prm

>  <SCORE>
-64.5417

>  <SCORE.INTER>
-11.5285

>  <SCORE.INTER.CONST>
1

>  <SCORE.INTER.POLAR>
-2.23054

>  <SCORE.INTER.REPUL>
0.000686814

>  <SCORE.INTER.ROT>
6

>  <SCORE.INTER.VDW>
-15.3481

>  <SCORE.INTER.norm>
-0.678145

>  <SCORE.INTRA>
-45.321

>  <SCORE.INTRA.DIHEDRAL>
-6.8542

>  <SCORE.INTRA.DIHEDRAL.0>
10.5783

>  <SCORE.INTRA.POLAR>
0

>  <SCORE.INTRA.POLAR.0>
0

>  <SCORE.INTRA.REPUL>
0

>  <SCORE.INTRA.REPUL.0>
0

>  <SCORE.INTRA.VDW>
-41.8939

>  <SCORE.INTRA.VDW.0>
41.073

>  <SCORE.INTRA.norm>
-2.66594

>  <SCORE.RESTR>
0

>  <SCORE.RESTR.CAVITY>
0

>  <SCORE.RESTR.norm>
0

>  <SCORE.SYSTEM>
-7.69226

>  <SCORE.SYSTEM.CONST>
0

>  <SCORE.SYSTEM.DIHEDRAL>
7.08844

>  <SCORE.SYSTEM.POLAR>
-4.10895

>  <SCORE.SYSTEM.REPUL>
0.0437637

>  <SCORE.SYSTEM.VDW>
2.51512

>  <SCORE.SYSTEM.norm>
-0.452486

>  <SCORE.heavy>
17

>  <SCORE.norm>
-3.79657

$$$$
F0807-0830
  rDOCK(R)          3D
libRbt.so/2013.1/901 2013/11/27
 20 20  0  0  0  0  0  0  0  0999 V2000
  -19.8160   16.7766  -14.5421 C   0  0  0  0  0  0
  -19.4129   18.2155  -14.2575 C   0  0  0  0  0  0
  -20.2554   18.7833  -13.2083 O   0  0  0  0  0  0
  -20.2023   20.1149  -12.7772 C   0  0  0  0  0  0
  -20.9907   20.4477  -11.6130 C   0  0  0  0  0  0
  -21.4178   21.8519  -11.3065 C   0  0  0  0  0  0
  -21.1370   22.9136  -12.2002 C   0  0  0  0  0  0
  -21.9043   24.2072  -12.4058 N   0  0  0  0  0  0
  -22.7007   25.0774  -11.7445 C   0  0  0  0  0  0
  -22.9571   26.6363  -12.3619 S   0  0  0  0  0  0
  -23.4690   24.7860  -10.6904 N   0  0  0  0  0  0
  -23.8151   23.5020  -10.1603 C   0  0  0  0  0  0
  -24.8609   22.5747  -10.8507 C   0  0  0  0  0  0
  -26.3403   22.7057  -11.3069 C   0  0  0  0  0  0
  -26.9772   21.6077  -11.7776 O   0  0  0  0  0  0
  -20.2353   22.5905  -13.2555 C   0  0  0  0  0  0
  -19.7913   21.2175  -13.5611 C   0  0  0  0  0  0
  -21.8874   24.5344  -13.3707 H   0  0  0  0  0  0
  -23.8609   25.5987  -10.2180 H   0  0  0  0  0  0
  -26.9722   21.0710  -10.8519 H   0  0  0  0  0  0
  1  2  1  0  0  0
  2  3  1  0  0  0
  3  4  1  0  0  0
  4  5  2  0  0  0
  4 17  1  0  0  0
  5  6  1  0  0  0
  6  7  2  0  0  0
  7  8  1  0  0  0
  7 16  1  0  0  0
  8  9  1  0  0  0
  8 18  1  0  0  0
  9 10  2  0  0  0
  9 11  1  0  0  0
 11 12  1  0  0  0
 11 19  1  0  0  0
 12 13  1  0  0  0
 13 14  1  0  0  0
 14 15  1  0  0  0
 15 20  1  0  0  0
 16 17  2  0  0  0
M  END
>  <CHROM.0>
-61.02010806,-75.34122933,-166.69673373,63.19282481,-30.68082805,-58.70305767
-156.11872971,-161.96798890

>  <CHROM.1>
-175.46491910,-172.25419997,28.52538389,-75.32930378,-55.18478897,-173.83469230
66.27208364,-22.27430480,22.29151331,-12.24634309,0.95081989,-0.32772869
-3.02314483

>  <Name>
F0807-0830

>  <RI>
2.85679e+07

>  <Rbt.Current_Directory>
/home/adria/Escritorio/rDock_CMTR_LC/2pxcA_model/inputs_sah

>  <Rbt.Executable>
rbdock ($Id: //depot/dev/client3/rdock/2013.1/src/exe/rbdock.cxx#4 $)

>  <Rbt.Library>
libRbt.so (2013.1, Build901 2013/11/27)

>  <Rbt.Parameter_File>
/home/adria/Escritorio/rDock_2013.1_src/data/scripts/dock.prm

>  <Rbt.Receptor>
sah_rdock.prm

>  <SCORE>
-65.0989

>  <SCORE.INTER>
-12.5966

>  <SCORE.INTER.CONST>
1

>  <SCORE.INTER.POLAR>
-2.90285

>  <SCORE.INTER.REPUL>
0.120331

>  <SCORE.INTER.ROT>
6

>  <SCORE.INTER.VDW>
-14.7286

>  <SCORE.INTER.norm>
-0.740978

>  <SCORE.INTRA>
-44.7754

>  <SCORE.INTRA.DIHEDRAL>
-4.94535

>  <SCORE.INTRA.DIHEDRAL.0>
10.5783

>  <SCORE.INTRA.POLAR>
0

>  <SCORE.INTRA.POLAR.0>
0

>  <SCORE.INTRA.REPUL>
0

>  <SCORE.INTRA.REPUL.0>
0

>  <SCORE.INTRA.VDW>
-42.3027

>  <SCORE.INTRA.VDW.0>
41.073

>  <SCORE.INTRA.norm>
-2.63385

>  <SCORE.RESTR>
0

>  <SCORE.RESTR.CAVITY>
0

>  <SCORE.RESTR.norm>
0

>  <SCORE.SYSTEM>
-7.72688

>  <SCORE.SYSTEM.CONST>
0

>  <SCORE.SYSTEM.DIHEDRAL>
6.74398

>  <SCORE.SYSTEM.POLAR>
-4.09992

>  <SCORE.SYSTEM.REPUL>
0.0424457

>  <SCORE.SYSTEM.VDW>
2.62863

>  <SCORE.SYSTEM.norm>
-0.454522

>  <SCORE.heavy>
17

>  <SCORE.norm>
-3.82935

$$$$
F0807-0830
  rDOCK(R)          3D
libRbt.so/2013.1/901 2013/11/27
 20 20  0  0  0  0  0  0  0  0999 V2000
  -22.2296   17.9917  -17.0562 C   0  0  0  0  0  0
  -21.2474   18.9353  -16.3786 C   0  0  0  0  0  0
  -21.7275   19.3028  -15.0492 O   0  0  0  0  0  0
  -21.0745   20.1891  -14.1831 C   0  0  0  0  0  0
  -21.5591   20.2358  -12.8227 C   0  0  0  0  0  0
  -21.3150   21.4100  -11.9228 C   0  0  0  0  0  0
  -20.6655   22.5744  -12.3993 C   0  0  0  0  0  0
  -20.8106   24.0058  -11.9149 N   0  0  0  0  0  0
  -21.4164   24.7369  -10.9521 C   0  0  0  0  0  0
  -20.8848   26.3125  -10.6170 S   0  0  0  0  0  0
  -22.5389   24.4025  -10.3083 N   0  0  0  0  0  0
  -23.4717   23.3604  -10.6140 C   0  0  0  0  0  0
  -24.4170   23.4308  -11.8516 C   0  0  0  0  0  0
  -24.2350   23.5110  -13.3925 C   0  0  0  0  0  0
  -25.3311   23.4340  -14.1834 O   0  0  0  0  0  0
  -20.0673   22.4468  -13.6866 C   0  0  0  0  0  0
  -20.2826   21.2917  -14.5782 C   0  0  0  0  0  0
  -20.3623   24.6843  -12.5291 H   0  0  0  0  0  0
  -22.7491   24.9841   -9.4992 H   0  0  0  0  0  0
  -25.6219   22.4515  -13.8750 H   0  0  0  0  0  0
  1  2  1  0  0  0
  2  3  1  0  0  0
  3  4  1  0  0  0
  4  5  2  0  0  0
  4 17  1  0  0  0
  5  6  1  0  0  0
  6  7  2  0  0  0
  7  8  1  0  0  0
  7 16  1  0  0  0
  8  9  1  0  0  0
  8 18  1  0  0  0
  9 10  2  0  0  0
  9 11  1  0  0  0
 11 12  1  0  0  0
 11 19  1  0  0  0
 12 13  1  0  0  0
 13 14  1  0  0  0
 14 15  1  0  0  0
 15 20  1  0  0  0
 16 17  2  0  0  0
M  END
>  <CHROM.0>
-62.97186914,-74.23788432,-47.04936957,64.95426604,-29.95076821,63.52198721
83.64502169,-162.77222696

>  <CHROM.1>
-177.99312774,-168.63595563,4.97675623,-70.75809334,61.13968128,173.97451839
-61.55879158,-21.95787609,22.49940013,-12.91805873,1.53938077,0.13541678
-2.45714757

>  <Name>
F0807-0830

>  <RI>
2.85679e+07

>  <Rbt.Current_Directory>
/home/adria/Escritorio/rDock_CMTR_LC/2pxcA_model/inputs_sah

>  <Rbt.Executable>
rbdock ($Id: //depot/dev/client3/rdock/2013.1/src/exe/rbdock.cxx#4 $)

>  <Rbt.Library>
libRbt.so (2013.1, Build901 2013/11/27)

>  <Rbt.Parameter_File>
/home/adria/Escritorio/rDock_2013.1_src/data/scripts/dock.prm

>  <Rbt.Receptor>
sah_rdock.prm

>  <SCORE>
-63.3117

>  <SCORE.INTER>
-9.31618

>  <SCORE.INTER.CONST>
1

>  <SCORE.INTER.POLAR>
-1.51164

>  <SCORE.INTER.REPUL>
0

>  <SCORE.INTER.ROT>
6

>  <SCORE.INTER.VDW>
-15.5766

>  <SCORE.INTER.norm>
-0.548011

>  <SCORE.INTRA>
-46.4213

>  <SCORE.INTRA.DIHEDRAL>
-6.93941

>  <SCORE.INTRA.DIHEDRAL.0>
10.5783

>  <SCORE.INTRA.POLAR>
0

>  <SCORE.INTRA.POLAR.0>
0

>  <SCORE.INTRA.REPUL>
0

>  <SCORE.INTRA.REPUL.0>
0

>  <SCORE.INTRA.VDW>
-42.9516

>  <SCORE.INTRA.VDW.0>
41.073

>  <SCORE.INTRA.norm>
-2.73066

>  <SCORE.RESTR>
0

>  <SCORE.RESTR.CAVITY>
0

>  <SCORE.RESTR.norm>
0

>  <SCORE.SYSTEM>
-7.57427

>  <SCORE.SYSTEM.CONST>
0

>  <SCORE.SYSTEM.DIHEDRAL>
6.79015

>  <SCORE.SYSTEM.POLAR>
-4.04058

>  <SCORE.SYSTEM.REPUL>
0.0406708

>  <SCORE.SYSTEM.VDW>
2.56527

>  <SCORE.SYSTEM.norm>
-0.445546

>  <SCORE.heavy>
17

>  <SCORE.norm>
-3.72422

$$$$
F0807-0830
  rDOCK(R)          3D
libRbt.so/2013.1/901 2013/11/27
 20 20  0  0  0  0  0  0  0  0999 V2000
  -23.5998   16.6821  -13.8079 C   0  0  0  0  0  0
  -22.8143   17.6329  -12.9173 C   0  0  0  0  0  0
  -22.2100   18.6967  -13.7147 O   0  0  0  0  0  0
  -21.4270   19.7354  -13.1949 C   0  0  0  0  0  0
  -21.5336   19.9743  -11.7739 C   0  0  0  0  0  0
  -21.1586   21.2846  -11.1491 C   0  0  0  0  0  0
  -20.7604   22.3867  -11.9439 C   0  0  0  0  0  0
  -20.8915   23.8688  -11.6426 N   0  0  0  0  0  0
  -21.3434   24.7152  -10.6897 C   0  0  0  0  0  0
  -20.8479   26.3374  -10.6861 S   0  0  0  0  0  0
  -22.3022   24.4464   -9.7981 N   0  0  0  0  0  0
  -23.2156   23.3444   -9.7679 C   0  0  0  0  0  0
  -24.2013   23.1170   -8.5819 C   0  0  0  0  0  0
  -25.3804   22.1514   -8.2794 C   0  0  0  0  0  0
  -26.4786   22.1956   -9.0698 O   0  0  0  0  0  0
  -20.5184   22.0845  -13.3155 C   0  0  0  0  0  0
  -20.8653   20.7955  -13.9430 C   0  0  0  0  0  0
  -20.6074   24.4628  -12.4203 H   0  0  0  0  0  0
  -22.3871   25.1339   -9.0515 H   0  0  0  0  0  0
  -26.7291   23.2134   -8.8551 H   0  0  0  0  0  0
  1  2  1  0  0  0
  2  3  1  0  0  0
  3  4  1  0  0  0
  4  5  2  0  0  0
  4 17  1  0  0  0
  5  6  1  0  0  0
  6  7  2  0  0  0
  7  8  1  0  0  0
  7 16  1  0  0  0
  8  9  1  0  0  0
  8 18  1  0  0  0
  9 10  2  0  0  0
  9 11  1  0  0  0
 11 12  1  0  0  0
 11 19  1  0  0  0
 12 13  1  0  0  0
 13 14  1  0  0  0
 14 15  1  0  0  0
 15 20  1  0  0  0
 16 17  2  0  0  0
M  END
>  <CHROM.0>
-62.99035632,-71.73532203,73.66820217,65.45911176,-29.39604799,-57.19314894
-156.83720937,-164.89248701

>  <CHROM.1>
179.76678176,-17.74810304,0.16337942,174.75285051,172.97103782,-62.42029863
-60.85485763,-22.31693579,22.04666169,-11.33872374,1.60257656,-0.62369576
-2.64910880

>  <Name>
F0807-0830

>  <RI>
2.85679e+07

>  <Rbt.Current_Directory>
/home/adria/Escritorio/rDock_CMTR_LC/2pxcA_model/inputs_sah

>  <Rbt.Executable>
rbdock ($Id: //depot/dev/client3/rdock/2013.1/src/exe/rbdock.cxx#4 $)

>  <Rbt.Library>
libRbt.so (2013.1, Build901 2013/11/27)

>  <Rbt.Parameter_File>
/home/adria/Escritorio/rDock_2013.1_src/data/scripts/dock.prm

>  <Rbt.Receptor>
sah_rdock.prm

>  <SCORE>
-60.9505

>  <SCORE.INTER>
-8.09658

>  <SCORE.INTER.CONST>
1

>  <SCORE.INTER.POLAR>
-1.35917

>  <SCORE.INTER.REPUL>
0.00543814

>  <SCORE.INTER.ROT>
6

>  <SCORE.INTER.VDW>
-14.9026

>  <SCORE.INTER.norm>
-0.47627

>  <SCORE.INTRA>
-44.8918

>  <SCORE.INTRA.DIHEDRAL>
-7.30373

>  <SCORE.INTRA.DIHEDRAL.0>
10.5783

>  <SCORE.INTRA.POLAR>
0

>  <SCORE.INTRA.POLAR.0>
0

>  <SCORE.INTRA.REPUL>
0

>  <SCORE.INTRA.REPUL.0>
0

>  <SCORE.INTRA.VDW>
-41.2399

>  <SCORE.INTRA.VDW.0>
41.073

>  <SCORE.INTRA.norm>
-2.64069

>  <SCORE.RESTR>
0

>  <SCORE.RESTR.CAVITY>
0

>  <SCORE.RESTR.norm>
0

>  <SCORE.SYSTEM>
-7.96214

>  <SCORE.SYSTEM.CONST>
0

>  <SCORE.SYSTEM.DIHEDRAL>
6.51888

>  <SCORE.SYSTEM.POLAR>
-4.12409

>  <SCORE.SYSTEM.REPUL>
0.0361993

>  <SCORE.SYSTEM.VDW>
2.61935

>  <SCORE.SYSTEM.norm>
-0.468361

>  <SCORE.heavy>
17

>  <SCORE.norm>
-3.58532

$$$$
F0807-0830
  rDOCK(R)          3D
libRbt.so/2013.1/901 2013/11/27
 20 20  0  0  0  0  0  0  0  0999 V2000
  -18.9328   19.5204  -14.4928 C   0  0  0  0  0  0
  -19.2024   18.3320  -13.5824 C   0  0  0  0  0  0
  -20.6396   18.1325  -13.4160 O   0  0  0  0  0  0
  -21.5073   19.0526  -12.8140 C   0  0  0  0  0  0
  -22.8420   19.1337  -13.3613 C   0  0  0  0  0  0
  -23.7160   20.3373  -13.1727 C   0  0  0  0  0  0
  -23.2345   21.4953  -12.5154 C   0  0  0  0  0  0
  -23.6679   22.9385  -12.6993 N   0  0  0  0  0  0
  -23.4367   24.1791  -12.2133 C   0  0  0  0  0  0
  -23.9149   25.5442  -13.0992 S   0  0  0  0  0  0
  -22.9922   24.4661  -10.9859 N   0  0  0  0  0  0
  -22.8762   23.6033   -9.8494 C   0  0  0  0  0  0
  -23.9903   22.5824   -9.4665 C   0  0  0  0  0  0
  -25.5142   22.6511   -9.1713 C   0  0  0  0  0  0
  -25.9576   23.5178   -8.2307 O   0  0  0  0  0  0
  -21.9804   21.3371  -11.8570 C   0  0  0  0  0  0
  -21.1154   20.1532  -12.0176 C   0  0  0  0  0  0
  -24.4324   23.0459  -13.3645 H   0  0  0  0  0  0
  -22.7115   25.4365  -10.8564 H   0  0  0  0  0  0
  -25.6730   24.4061   -8.7549 H   0  0  0  0  0  0
  1  2  1  0  0  0
  2  3  1  0  0  0
  3  4  1  0  0  0
  4  5  2  0  0  0
  4 17  1  0  0  0
  5  6  1  0  0  0
  6  7  2  0  0  0
  7  8  1  0  0  0
  7 16  1  0  0  0
  8  9  1  0  0  0
  8 18  1  0  0  0
  9 10  2  0  0  0
  9 11  1  0  0  0
 11 12  1  0  0  0
 11 19  1  0  0  0
 12 13  1  0  0  0
 13 14  1  0  0  0
 14 15  1  0  0  0
 15 20  1  0  0  0
 16 17  2  0  0  0
M  END
>  <CHROM.0>
-179.11933472,67.73650359,74.47390124,66.17735036,-30.61928904,59.40148657
-157.44895169,-163.13587018

>  <CHROM.1>
-63.41289246,145.19840787,177.19496182,-42.58915272,-55.03937252,-53.71782540
65.07746095,-22.78207958,21.90090565,-11.97764152,-0.42399990,0.90915413
-0.53366989

>  <Name>
F0807-0830

>  <RI>
2.85679e+07

>  <Rbt.Current_Directory>
/home/adria/Escritorio/rDock_CMTR_LC/2pxcA_model/inputs_sah

>  <Rbt.Executable>
rbdock ($Id: //depot/dev/client3/rdock/2013.1/src/exe/rbdock.cxx#4 $)

>  <Rbt.Library>
libRbt.so (2013.1, Build901 2013/11/27)

>  <Rbt.Parameter_File>
/home/adria/Escritorio/rDock_2013.1_src/data/scripts/dock.prm

>  <Rbt.Receptor>
sah_rdock.prm

>  <SCORE>
-58.288

>  <SCORE.INTER>
-5.60353

>  <SCORE.INTER.CONST>
1

>  <SCORE.INTER.POLAR>
-1.32752

>  <SCORE.INTER.REPUL>
0

>  <SCORE.INTER.ROT>
6

>  <SCORE.INTER.VDW>
-12.49

>  <SCORE.INTER.norm>
-0.329619

>  <SCORE.INTRA>
-45.5921

>  <SCORE.INTRA.DIHEDRAL>
-6.26431

>  <SCORE.INTRA.DIHEDRAL.0>
10.5783

>  <SCORE.INTRA.POLAR>
0

>  <SCORE.INTRA.POLAR.0>
0

>  <SCORE.INTRA.REPUL>
0

>  <SCORE.INTRA.REPUL.0>
0

>  <SCORE.INTRA.VDW>
-42.4599

>  <SCORE.INTRA.VDW.0>
41.073

>  <SCORE.INTRA.norm>
-2.68189

>  <SCORE.RESTR>
0

>  <SCORE.RESTR.CAVITY>
0

>  <SCORE.RESTR.norm>
0

>  <SCORE.SYSTEM>
-7.09241

>  <SCORE.SYSTEM.CONST>
0

>  <SCORE.SYSTEM.DIHEDRAL>
5.97827

>  <SCORE.SYSTEM.POLAR>
-3.76286

>  <SCORE.SYSTEM.VDW>
2.71218

>  <SCORE.SYSTEM.norm>
-0.417201

>  <SCORE.heavy>
17

>  <SCORE.norm>
-3.42871

$$$$
F0807-0830
  rDOCK(R)          3D
libRbt.so/2013.1/901 2013/11/27
 20 20  0  0  0  0  0  0  0  0999 V2000
  -22.9275   16.8477  -13.4783 C   0  0  0  0  0  0
  -22.0417   17.8615  -14.1866 C   0  0  0  0  0  0
  -21.2171   17.2018  -15.1953 O   0  0  0  0  0  0
  -20.3121   17.8587  -16.0388 C   0  0  0  0  0  0
  -19.4416   17.0193  -16.8293 C   0  0  0  0  0  0
  -18.1474   17.5164  -17.4003 C   0  0  0  0  0  0
  -17.6745   18.8201  -17.1145 C   0  0  0  0  0  0
  -16.2420   19.3212  -17.0763 N   0  0  0  0  0  0
  -15.0495   19.1541  -17.6918 C   0  0  0  0  0  0
  -13.8271   20.3161  -17.5114 S   0  0  0  0  0  0
  -14.6494   18.0510  -18.3316 N   0  0  0  0  0  0
  -15.2440   16.7487  -18.3319 C   0  0  0  0  0  0
  -14.4512   15.4755  -18.7571 C   0  0  0  0  0  0
  -14.8067   14.0046  -19.1094 C   0  0  0  0  0  0
  -13.8041   13.1446  -19.4058 O   0  0  0  0  0  0
  -18.6135   19.6730  -16.4650 C   0  0  0  0  0  0
  -19.8984   19.2048  -15.9123 C   0  0  0  0  0  0
  -16.0605   19.9581  -16.3018 H   0  0  0  0  0  0
  -13.7995   18.1680  -18.8805 H   0  0  0  0  0  0
  -13.3587   13.7510  -20.1666 H   0  0  0  0  0  0
  1  2  1  0  0  0
  2  3  1  0  0  0
  3  4  1  0  0  0
  4  5  2  0  0  0
  4 17  1  0  0  0
  5  6  1  0  0  0
  6  7  2  0  0  0
  7  8  1  0  0  0
  7 16  1  0  0  0
  8  9  1  0  0  0
  8 18  1  0  0  0
  9 10  2  0  0  0
  9 11  1  0  0  0
 11 12  1  0  0  0
 11 19  1  0  0  0
 12 13  1  0  0  0
 13 14  1  0  0  0
 14 15  1  0  0  0
 15 20  1  0  0  0
 16 17  2  0  0  0
M  END
>  <CHROM.0>
-58.77634286,-72.64730954,-45.18147143,67.24741472,-30.50407557,-58.85107769
-156.17371557,-159.06195405

>  <CHROM.1>
178.73694425,170.91670085,35.55261256,-160.89381391,-167.12411906,-178.05885589
-53.33143042,-17.24312941,17.65802247,-17.04178937,2.91667017,0.43513664
0.22937934

>  <Name>
F0807-0830

>  <RI>
2.85679e+07

>  <Rbt.Current_Directory>
/home/adria/Escritorio/rDock_CMTR_LC/2pxcA_model/inputs_sah

>  <Rbt.Executable>
rbdock ($Id: //depot/dev/client3/rdock/2013.1/src/exe/rbdock.cxx#4 $)

>  <Rbt.Library>
libRbt.so (2013.1, Build901 2013/11/27)

>  <Rbt.Parameter_File>
/home/adria/Escritorio/rDock_2013.1_src/data/scripts/dock.prm

>  <Rbt.Receptor>
sah_rdock.prm

>  <SCORE>
-67.5689

>  <SCORE.INTER>
-16.4237

>  <SCORE.INTER.CONST>
1

>  <SCORE.INTER.POLAR>
-2.009

>  <SCORE.INTER.REPUL>
0

>  <SCORE.INTER.ROT>
6

>  <SCORE.INTER.VDW>
-20.9931

>  <SCORE.INTER.norm>
-0.966102

>  <SCORE.INTRA>
-43.4574

>  <SCORE.INTRA.DIHEDRAL>
-3.92681

>  <SCORE.INTRA.DIHEDRAL.0>
10.5783

>  <SCORE.INTRA.POLAR>
0

>  <SCORE.INTRA.POLAR.0>
0

>  <SCORE.INTRA.REPUL>
0

>  <SCORE.INTRA.REPUL.0>
0

>  <SCORE.INTRA.VDW>
-41.494

>  <SCORE.INTRA.VDW.0>
41.073

>  <SCORE.INTRA.norm>
-2.55632

>  <SCORE.RESTR>
0

>  <SCORE.RESTR.CAVITY>
0

>  <SCORE.RESTR.norm>
0

>  <SCORE.SYSTEM>
-7.68773

>  <SCORE.SYSTEM.CONST>
0

>  <SCORE.SYSTEM.DIHEDRAL>
6.88929

>  <SCORE.SYSTEM.POLAR>
-4.09313

>  <SCORE.SYSTEM.REPUL>
0.0378996

>  <SCORE.SYSTEM.VDW>
2.59476

>  <SCORE.SYSTEM.norm>
-0.452219

>  <SCORE.heavy>
17

>  <SCORE.norm>
-3.97464

$$$$
F0807-0830
  rDOCK(R)          3D
libRbt.so/2013.1/901 2013/11/27
 20 20  0  0  0  0  0  0  0  0999 V2000
  -26.0006   21.1814   -9.4836 C   0  0  0  0  0  0
  -27.0931   22.0449  -10.0958 C   0  0  0  0  0  0
  -26.5331   22.9317  -11.1120 O   0  0  0  0  0  0
  -25.5517   23.9016  -10.8700 C   0  0  0  0  0  0
  -24.7532   24.3078  -12.0035 C   0  0  0  0  0  0
  -23.4057   24.9468  -11.8493 C   0  0  0  0  0  0
  -22.8121   25.1037  -10.5734 C   0  0  0  0  0  0
  -21.3383   25.1660  -10.2151 N   0  0  0  0  0  0
  -20.1205   24.8305  -10.6981 C   0  0  0  0  0  0
  -18.7214   25.5311  -10.0434 S   0  0  0  0  0  0
  -19.8700   23.8485  -11.5695 N   0  0  0  0  0  0
  -20.7384   22.8007  -12.0141 C   0  0  0  0  0  0
  -20.3119   21.3016  -11.9834 C   0  0  0  0  0  0
  -21.0040   19.9380  -12.2590 C   0  0  0  0  0  0
  -20.2818   18.8011  -12.1228 O   0  0  0  0  0  0
  -23.6748   24.8380   -9.4705 C   0  0  0  0  0  0
  -25.0099   24.2255   -9.6049 C   0  0  0  0  0  0
  -21.1687   25.5213   -9.2752 H   0  0  0  0  0  0
  -18.9259   23.8557  -11.9515 H   0  0  0  0  0  0
  -20.0758   18.9245  -11.0801 H   0  0  0  0  0  0
  1  2  1  0  0  0
  2  3  1  0  0  0
  3  4  1  0  0  0
  4  5  2  0  0  0
  4 17  1  0  0  0
  5  6  1  0  0  0
  6  7  2  0  0  0
  7  8  1  0  0  0
  7 16  1  0  0  0
  8  9  1  0  0  0
  8 18  1  0  0  0
  9 10  2  0  0  0
  9 11  1  0  0  0
 11 12  1  0  0  0
 11 19  1  0  0  0
 12 13  1  0  0  0
 13 14  1  0  0  0
 14 15  1  0  0  0
 15 20  1  0  0  0
 16 17  2  0  0  0
M  END
>  <CHROM.0>
-64.87208544,-73.47228663,72.42400180,66.73158627,168.01392908,-56.07641549
-156.20055360,-158.10674974

>  <CHROM.1>
-60.59771307,156.45682792,-20.33418574,-128.60568716,173.70330055,-179.96236927
61.95531568,-22.45670518,23.33191301,-10.88718045,-3.03945319,0.11654124
0.27485593

>  <Name>
F0807-0830

>  <RI>
2.85679e+07

>  <Rbt.Current_Directory>
/home/adria/Escritorio/rDock_CMTR_LC/2pxcA_model/inputs_sah

>  <Rbt.Executable>
rbdock ($Id: //depot/dev/client3/rdock/2013.1/src/exe/rbdock.cxx#4 $)

>  <Rbt.Library>
libRbt.so (2013.1, Build901 2013/11/27)

>  <Rbt.Parameter_File>
/home/adria/Escritorio/rDock_2013.1_src/data/scripts/dock.prm

>  <Rbt.Receptor>
sah_rdock.prm

>  <SCORE>
-61.2932

>  <SCORE.INTER>
-14.1466

>  <SCORE.INTER.CONST>
1

>  <SCORE.INTER.POLAR>
-1.85496

>  <SCORE.INTER.REPUL>
0

>  <SCORE.INTER.ROT>
6

>  <SCORE.INTER.VDW>
-19.2397

>  <SCORE.INTER.norm>
-0.832154

>  <SCORE.INTRA>
-44.1237

>  <SCORE.INTRA.DIHEDRAL>
-4.96267

>  <SCORE.INTRA.DIHEDRAL.0>
10.5783

>  <SCORE.INTRA.POLAR>
0

>  <SCORE.INTRA.POLAR.0>
0

>  <SCORE.INTRA.REPUL>
0

>  <SCORE.INTRA.REPUL.0>
0

>  <SCORE.INTRA.VDW>
-41.6424

>  <SCORE.INTRA.VDW.0>
41.073

>  <SCORE.INTRA.norm>
-2.59551

>  <SCORE.RESTR>
0

>  <SCORE.RESTR.CAVITY>
0

>  <SCORE.RESTR.norm>
0

>  <SCORE.SYSTEM>
-3.02283

>  <SCORE.SYSTEM.CONST>
0

>  <SCORE.SYSTEM.DIHEDRAL>
4.18215

>  <SCORE.SYSTEM.POLAR>
-4.07499

>  <SCORE.SYSTEM.REPUL>
0.039368

>  <SCORE.SYSTEM.VDW>
8.54423

>  <SCORE.SYSTEM.norm>
-0.177814

>  <SCORE.heavy>
17

>  <SCORE.norm>
-3.60548

$$$$
