F3398-2641
  rDOCK(R)          3D
libRbt.so/2013.1/901 2013/11/27
 29 32  0  0  0  0  0  0  0  0999 V2000
  -22.5638   20.1234   -9.8230 C   0  0  0  0  0  0
  -21.7471   19.8897  -11.0173 N   0  0  0  0  0  0
  -20.7666   20.9439  -11.4411 C   0  0  0  0  0  0
  -21.3084   22.1100  -12.2662 C   0  0  0  0  0  0
  -20.8014   23.8190  -12.2987 C   0  0  0  0  0  0
  -22.0074   25.1769  -12.5277 C   0  0  0  0  0  0
  -23.7629   24.9616  -12.6668 C   0  0  0  0  0  0
  -24.3267   23.3290  -12.6962 C   0  0  0  0  0  0
  -23.0126   21.7839  -12.5820 C   0  0  0  0  0  0
  -22.2252   18.8923  -11.8587 C   0  0  0  0  0  0
  -23.3850   18.4812  -11.7875 O   0  0  0  0  0  0
  -21.3346   18.3348  -12.8500 C   0  0  0  0  0  0
  -21.1816   18.5811  -14.2484 C   0  0  0  0  0  0
  -20.0516   17.6085  -14.5168 N   0  0  0  0  0  0
  -19.8621   16.8390  -13.4040 N   0  0  0  0  0  0
  -20.5417   17.3155  -12.4012 N   0  0  0  0  0  0
  -19.2294   17.1771  -15.6524 C   0  0  0  0  0  0
  -18.6352   15.9219  -15.7097 C   0  0  0  0  0  0
  -17.5255   15.6753  -16.5349 C   0  0  0  0  0  0
  -17.2750   16.5118  -17.6045 C   0  0  0  0  0  0
  -16.1517   16.0138  -18.8063 Cl  0  0  0  0  0  0
  -18.0291   17.6705  -17.7449 C   0  0  0  0  0  0
  -18.9329   18.0523  -16.7285 C   0  0  0  0  0  0
  -22.4658   19.2174  -15.2557 C   0  0  0  0  0  0
  -24.0352   19.5665  -14.4086 C   0  0  0  0  0  0
  -25.4885   19.9631  -15.3508 N   0  0  0  0  0  0
  -25.4706   20.0310  -17.1216 C   0  0  0  0  0  0
  -24.1300   19.6987  -18.1215 C   0  0  0  0  0  0
  -22.6782   19.2378  -17.2992 C   0  0  0  0  0  0
  1  2  1  0  0  0
  2  3  1  0  0  0
  2 10  1  0  0  0
  3  4  1  0  0  0
  4  5  2  0  0  0
  4  9  1  0  0  0
  5  6  1  0  0  0
  6  7  2  0  0  0
  7  8  1  0  0  0
  8  9  2  0  0  0
 10 11  2  0  0  0
 10 12  1  0  0  0
 12 13  2  0  0  0
 12 16  1  0  0  0
 13 14  1  0  0  0
 13 24  1  0  0  0
 14 15  1  0  0  0
 14 17  1  0  0  0
 15 16  2  0  0  0
 17 18  2  0  0  0
 17 23  1  0  0  0
 18 19  1  0  0  0
 19 20  2  0  0  0
 20 21  1  0  0  0
 20 22  1  0  0  0
 22 23  2  0  0  0
 24 25  2  0  0  0
 24 29  1  0  0  0
 25 26  1  0  0  0
 26 27  2  0  0  0
 27 28  1  0  0  0
 28 29  2  0  0  0
M  END
>  <CHROM.0>
-176.89926640,-74.50124951,-130.12033564,67.11924776,-31.84436302,62.43113705
-36.94554751,-161.90325908

>  <CHROM.1>
-82.65637450,146.80354639,-99.71315049,0.39714220,-153.95857981,-21.08700194
19.22236884,-14.49220087,-2.38747888,0.62604393,-1.85727574

>  <Name>
F3398-2641

>  <RI>
1.8803e+07

>  <Rbt.Current_Directory>
/home/adria/Escritorio/rDock_CMTR_LC/2pxcA_model/inputs_sah

>  <Rbt.Executable>
rbdock ($Id: //depot/dev/client3/rdock/2013.1/src/exe/rbdock.cxx#4 $)

>  <Rbt.Library>
libRbt.so (2013.1, Build901 2013/11/27)

>  <Rbt.Parameter_File>
/home/adria/Escritorio/rDock_2013.1_src/data/scripts/dock.prm

>  <Rbt.Receptor>
sah_rdock.prm

>  <SCORE>
-311.623

>  <SCORE.INTER>
-16.9594

>  <SCORE.INTER.CONST>
1

>  <SCORE.INTER.POLAR>
-1.50127

>  <SCORE.INTER.REPUL>
0.00129794

>  <SCORE.INTER.ROT>
5

>  <SCORE.INTER.VDW>
-22.2615

>  <SCORE.INTER.norm>
-0.584805

>  <SCORE.INTRA>
-287.94

>  <SCORE.INTRA.DIHEDRAL>
-1.56284

>  <SCORE.INTRA.DIHEDRAL.0>
17.2324

>  <SCORE.INTRA.POLAR>
0

>  <SCORE.INTRA.POLAR.0>
0

>  <SCORE.INTRA.REPUL>
0

>  <SCORE.INTRA.REPUL.0>
0

>  <SCORE.INTRA.VDW>
-287.158

>  <SCORE.INTRA.VDW.0>
284.832

>  <SCORE.INTRA.norm>
-9.92896

>  <SCORE.RESTR>
0

>  <SCORE.RESTR.CAVITY>
0

>  <SCORE.RESTR.norm>
0

>  <SCORE.SYSTEM>
-6.72418

>  <SCORE.SYSTEM.CONST>
0

>  <SCORE.SYSTEM.DIHEDRAL>
9.52706

>  <SCORE.SYSTEM.POLAR>
-4.51703

>  <SCORE.SYSTEM.REPUL>
0.0411055

>  <SCORE.SYSTEM.VDW>
3.66467

>  <SCORE.SYSTEM.norm>
-0.231868

>  <SCORE.heavy>
29

>  <SCORE.norm>
-10.7456

$$$$
F3398-2641
  rDOCK(R)          3D
libRbt.so/2013.1/901 2013/11/27
 29 32  0  0  0  0  0  0  0  0999 V2000
  -27.5220   19.4134  -12.4857 C   0  0  0  0  0  0
  -26.2735   20.1775  -12.4121 N   0  0  0  0  0  0
  -25.5125   20.4440  -13.6779 C   0  0  0  0  0  0
  -25.5008   19.3378  -14.7316 C   0  0  0  0  0  0
  -25.0715   17.6145  -14.5737 C   0  0  0  0  0  0
  -24.2170   16.7085  -15.9152 C   0  0  0  0  0  0
  -23.6738   17.4314  -17.4416 C   0  0  0  0  0  0
  -24.0999   19.0869  -17.6904 C   0  0  0  0  0  0
  -25.1672   20.0973  -16.2879 C   0  0  0  0  0  0
  -25.7156   20.2526  -11.1415 C   0  0  0  0  0  0
  -26.0471   19.4820  -10.2384 O   0  0  0  0  0  0
  -24.7107   21.2576  -10.8831 C   0  0  0  0  0  0
  -23.3749   21.4230  -11.3605 C   0  0  0  0  0  0
  -23.0385   22.7024  -10.6225 N   0  0  0  0  0  0
  -24.0375   22.9689   -9.7296 N   0  0  0  0  0  0
  -25.0549   22.1844   -9.9389 N   0  0  0  0  0  0
  -21.9052   23.6256  -10.4990 C   0  0  0  0  0  0
  -21.9790   24.8044   -9.7664 C   0  0  0  0  0  0
  -21.0949   25.8698  -10.0045 C   0  0  0  0  0  0
  -19.8924   25.6260  -10.6377 C   0  0  0  0  0  0
  -18.6743   26.8383  -10.6074 Cl  0  0  0  0  0  0
  -19.6543   24.3647  -11.1699 C   0  0  0  0  0  0
  -20.6859   23.3997  -11.1876 C   0  0  0  0  0  0
  -22.3933   20.0936  -11.9419 C   0  0  0  0  0  0
  -20.7181   20.5309  -12.4941 C   0  0  0  0  0  0
  -19.7182   19.3335  -13.3449 N   0  0  0  0  0  0
  -20.3015   17.6955  -13.6870 C   0  0  0  0  0  0
  -21.8462   17.0835  -13.3033 C   0  0  0  0  0  0
  -22.9215   18.1966  -12.5280 C   0  0  0  0  0  0
  1  2  1  0  0  0
  2  3  1  0  0  0
  2 10  1  0  0  0
  3  4  1  0  0  0
  4  5  2  0  0  0
  4  9  1  0  0  0
  5  6  1  0  0  0
  6  7  2  0  0  0
  7  8  1  0  0  0
  8  9  2  0  0  0
 10 11  2  0  0  0
 10 12  1  0  0  0
 12 13  2  0  0  0
 12 16  1  0  0  0
 13 14  1  0  0  0
 13 24  1  0  0  0
 14 15  1  0  0  0
 14 17  1  0  0  0
 15 16  2  0  0  0
 17 18  2  0  0  0
 17 23  1  0  0  0
 18 19  1  0  0  0
 19 20  2  0  0  0
 20 21  1  0  0  0
 20 22  1  0  0  0
 22 23  2  0  0  0
 24 25  2  0  0  0
 24 29  1  0  0  0
 25 26  1  0  0  0
 26 27  2  0  0  0
 27 28  1  0  0  0
 28 29  2  0  0  0
M  END
>  <CHROM.0>
-176.16766152,68.64085825,-8.41515931,64.38292399,168.34282079,62.30385604
82.76183136,-164.29048210

>  <CHROM.1>
-36.54791743,-52.38132496,-67.72005466,-179.67787863,175.36037955,-22.93504108
21.26724951,-12.31016173,2.10080458,-0.33731128,-2.40947814

>  <Name>
F3398-2641

>  <RI>
1.8803e+07

>  <Rbt.Current_Directory>
/home/adria/Escritorio/rDock_CMTR_LC/2pxcA_model/inputs_sah

>  <Rbt.Executable>
rbdock ($Id: //depot/dev/client3/rdock/2013.1/src/exe/rbdock.cxx#4 $)

>  <Rbt.Library>
libRbt.so (2013.1, Build901 2013/11/27)

>  <Rbt.Parameter_File>
/home/adria/Escritorio/rDock_2013.1_src/data/scripts/dock.prm

>  <Rbt.Receptor>
sah_rdock.prm

>  <SCORE>
-296.244

>  <SCORE.INTER>
-5.45508

>  <SCORE.INTER.CONST>
1

>  <SCORE.INTER.POLAR>
0

>  <SCORE.INTER.REPUL>
0

>  <SCORE.INTER.ROT>
5

>  <SCORE.INTER.VDW>
-15.8551

>  <SCORE.INTER.norm>
-0.188106

>  <SCORE.INTRA>
-289.261

>  <SCORE.INTRA.DIHEDRAL>
-3.29187

>  <SCORE.INTRA.DIHEDRAL.0>
17.2324

>  <SCORE.INTRA.POLAR>
0

>  <SCORE.INTRA.POLAR.0>
0

>  <SCORE.INTRA.REPUL>
0

>  <SCORE.INTRA.REPUL.0>
0

>  <SCORE.INTRA.VDW>
-287.615

>  <SCORE.INTRA.VDW.0>
284.832

>  <SCORE.INTRA.norm>
-9.97453

>  <SCORE.RESTR>
0.0179381

>  <SCORE.RESTR.CAVITY>
0.0179381

>  <SCORE.RESTR.norm>
0.000618557

>  <SCORE.SYSTEM>
-1.54519

>  <SCORE.SYSTEM.CONST>
0

>  <SCORE.SYSTEM.DIHEDRAL>
6.10615

>  <SCORE.SYSTEM.POLAR>
-4.15073

>  <SCORE.SYSTEM.VDW>
9.51422

>  <SCORE.SYSTEM.norm>
-0.0532824

>  <SCORE.heavy>
29

>  <SCORE.norm>
-10.2153

$$$$
F3398-2641
  rDOCK(R)          3D
libRbt.so/2013.1/901 2013/11/27
 29 32  0  0  0  0  0  0  0  0999 V2000
  -23.8307   19.3053   -9.9473 C   0  0  0  0  0  0
  -22.9315   19.4637  -11.0937 N   0  0  0  0  0  0
  -22.7889   20.8203  -11.7195 C   0  0  0  0  0  0
  -22.3029   21.9562  -10.8207 C   0  0  0  0  0  0
  -23.2375   23.1391   -9.8688 C   0  0  0  0  0  0
  -22.6732   24.8678   -9.6597 C   0  0  0  0  0  0
  -21.2224   25.5591  -10.4111 C   0  0  0  0  0  0
  -20.2356   24.4603  -11.3072 C   0  0  0  0  0  0
  -20.7495   22.5002  -11.4540 C   0  0  0  0  0  0
  -22.5927   18.2762  -11.7313 C   0  0  0  0  0  0
  -23.2405   17.2407  -11.5659 O   0  0  0  0  0  0
  -21.4545   18.2664  -12.6207 C   0  0  0  0  0  0
  -21.2279   18.8703  -13.8949 C   0  0  0  0  0  0
  -19.8123   18.3795  -14.1180 N   0  0  0  0  0  0
  -19.5081   17.4642  -13.1504 N   0  0  0  0  0  0
  -20.4233   17.4607  -12.2249 N   0  0  0  0  0  0
  -18.7632   18.4993  -15.1363 C   0  0  0  0  0  0
  -17.7663   17.5443  -15.2970 C   0  0  0  0  0  0
  -16.5510   17.8553  -15.9294 C   0  0  0  0  0  0
  -16.4836   18.9469  -16.7721 C   0  0  0  0  0  0
  -15.1236   19.1158  -17.8094 Cl  0  0  0  0  0  0
  -17.5721   19.8072  -16.8492 C   0  0  0  0  0  0
  -18.6656   19.6427  -15.9699 C   0  0  0  0  0  0
  -22.5215   19.3051  -14.9932 C   0  0  0  0  0  0
  -24.1612   19.5162  -14.2387 C   0  0  0  0  0  0
  -25.5995   19.6972  -15.2663 N   0  0  0  0  0  0
  -25.4986   19.6769  -17.0354 C   0  0  0  0  0  0
  -24.0801   19.4487  -17.9537 C   0  0  0  0  0  0
  -22.6301   19.1978  -17.0421 C   0  0  0  0  0  0
  1  2  1  0  0  0
  2  3  1  0  0  0
  2 10  1  0  0  0
  3  4  1  0  0  0
  4  5  2  0  0  0
  4  9  1  0  0  0
  5  6  1  0  0  0
  6  7  2  0  0  0
  7  8  1  0  0  0
  8  9  2  0  0  0
 10 11  2  0  0  0
 10 12  1  0  0  0
 12 13  2  0  0  0
 12 16  1  0  0  0
 13 14  1  0  0  0
 13 24  1  0  0  0
 14 15  1  0  0  0
 14 17  1  0  0  0
 15 16  2  0  0  0
 17 18  2  0  0  0
 17 23  1  0  0  0
 18 19  1  0  0  0
 19 20  2  0  0  0
 20 21  1  0  0  0
 20 22  1  0  0  0
 22 23  2  0  0  0
 24 25  2  0  0  0
 24 29  1  0  0  0
 25 26  1  0  0  0
 26 27  2  0  0  0
 27 28  1  0  0  0
 28 29  2  0  0  0
M  END
>  <CHROM.0>
-62.21553467,-167.75016783,73.73973152,67.16525612,-30.10155176,62.07126452
-157.12875378,-161.78781372

>  <CHROM.1>
58.68457726,-92.89896451,-68.71907446,21.27765924,-154.89734168,-20.87067407
19.80553963,-13.83643195,2.37215246,0.22693840,0.86400925

>  <Name>
F3398-2641

>  <RI>
1.8803e+07

>  <Rbt.Current_Directory>
/home/adria/Escritorio/rDock_CMTR_LC/2pxcA_model/inputs_sah

>  <Rbt.Executable>
rbdock ($Id: //depot/dev/client3/rdock/2013.1/src/exe/rbdock.cxx#4 $)

>  <Rbt.Library>
libRbt.so (2013.1, Build901 2013/11/27)

>  <Rbt.Parameter_File>
/home/adria/Escritorio/rDock_2013.1_src/data/scripts/dock.prm

>  <Rbt.Receptor>
sah_rdock.prm

>  <SCORE>
-311.287

>  <SCORE.INTER>
-15.9034

>  <SCORE.INTER.CONST>
1

>  <SCORE.INTER.POLAR>
-1.4301

>  <SCORE.INTER.REPUL>
0

>  <SCORE.INTER.ROT>
5

>  <SCORE.INTER.VDW>
-21.441

>  <SCORE.INTER.norm>
-0.548393

>  <SCORE.INTRA>
-288.655

>  <SCORE.INTRA.DIHEDRAL>
-2.76563

>  <SCORE.INTRA.DIHEDRAL.0>
17.2324

>  <SCORE.INTRA.POLAR>
0

>  <SCORE.INTRA.POLAR.0>
0

>  <SCORE.INTRA.REPUL>
0

>  <SCORE.INTRA.REPUL.0>
0

>  <SCORE.INTRA.VDW>
-287.272

>  <SCORE.INTRA.VDW.0>
284.832

>  <SCORE.INTRA.norm>
-9.95361

>  <SCORE.RESTR>
0

>  <SCORE.RESTR.CAVITY>
0

>  <SCORE.RESTR.norm>
0

>  <SCORE.SYSTEM>
-6.7291

>  <SCORE.SYSTEM.CONST>
0

>  <SCORE.SYSTEM.DIHEDRAL>
6.64023

>  <SCORE.SYSTEM.POLAR>
-3.81475

>  <SCORE.SYSTEM.VDW>
2.92094

>  <SCORE.SYSTEM.norm>
-0.232038

>  <SCORE.heavy>
29

>  <SCORE.norm>
-10.734

$$$$
F3398-2641
  rDOCK(R)          3D
libRbt.so/2013.1/901 2013/11/27
 29 32  0  0  0  0  0  0  0  0999 V2000
  -24.6956   18.2892   -9.7638 C   0  0  0  0  0  0
  -23.4964   18.7969  -10.4362 N   0  0  0  0  0  0
  -22.6548   19.8241   -9.7369 C   0  0  0  0  0  0
  -23.2302   21.2343   -9.6171 C   0  0  0  0  0  0
  -23.5138   22.2328   -8.1675 C   0  0  0  0  0  0
  -24.9550   23.3538   -8.0375 C   0  0  0  0  0  0
  -26.2272   23.5166   -9.2632 C   0  0  0  0  0  0
  -25.9953   22.6189  -10.7208 C   0  0  0  0  0  0
  -24.3411   21.4654  -10.9672 C   0  0  0  0  0  0
  -23.4612   18.5681  -11.8065 C   0  0  0  0  0  0
  -24.4744   18.2737  -12.4436 O   0  0  0  0  0  0
  -22.1993   18.6921  -12.4985 C   0  0  0  0  0  0
  -21.8762   18.9843  -13.8586 C   0  0  0  0  0  0
  -20.3671   18.9316  -13.7383 N   0  0  0  0  0  0
  -20.0425   18.4458  -12.5034 N   0  0  0  0  0  0
  -21.0991   18.3902  -11.7453 N   0  0  0  0  0  0
  -19.1962   19.1119  -14.6034 C   0  0  0  0  0  0
  -18.2671   18.1017  -14.8223 C   0  0  0  0  0  0
  -16.9631   18.3895  -15.2585 C   0  0  0  0  0  0
  -16.7067   19.5926  -15.8856 C   0  0  0  0  0  0
  -15.2219   19.7931  -16.7279 Cl  0  0  0  0  0  0
  -17.7053   20.5580  -15.9259 C   0  0  0  0  0  0
  -18.9069   20.3612  -15.2094 C   0  0  0  0  0  0
  -22.9731   18.6821  -15.1906 C   0  0  0  0  0  0
  -24.6914   19.2159  -14.9360 C   0  0  0  0  0  0
  -25.9547   18.7375  -16.0903 N   0  0  0  0  0  0
  -25.6003   17.7367  -17.5092 C   0  0  0  0  0  0
  -24.0777   17.0889  -17.9211 C   0  0  0  0  0  0
  -22.7898   17.4451  -16.8208 C   0  0  0  0  0  0
  1  2  1  0  0  0
  2  3  1  0  0  0
  2 10  1  0  0  0
  3  4  1  0  0  0
  4  5  2  0  0  0
  4  9  1  0  0  0
  5  6  1  0  0  0
  6  7  2  0  0  0
  7  8  1  0  0  0
  8  9  2  0  0  0
 10 11  2  0  0  0
 10 12  1  0  0  0
 12 13  2  0  0  0
 12 16  1  0  0  0
 13 14  1  0  0  0
 13 24  1  0  0  0
 14 15  1  0  0  0
 14 17  1  0  0  0
 15 16  2  0  0  0
 17 18  2  0  0  0
 17 23  1  0  0  0
 18 19  1  0  0  0
 19 20  2  0  0  0
 20 21  1  0  0  0
 20 22  1  0  0  0
 22 23  2  0  0  0
 24 25  2  0  0  0
 24 29  1  0  0  0
 25 26  1  0  0  0
 26 27  2  0  0  0
 27 28  1  0  0  0
 28 29  2  0  0  0
M  END
>  <CHROM.0>
-59.66648410,-165.51411684,-0.21268894,64.75707283,-28.65973175,-59.45272535
-156.56969023,-159.35369060

>  <CHROM.1>
-71.69188701,123.82476901,-154.88892891,45.82748941,-119.68762069,-21.78881534
19.52585473,-13.33913749,2.45631200,0.13508763,1.10938614

>  <Name>
F3398-2641

>  <RI>
1.8803e+07

>  <Rbt.Current_Directory>
/home/adria/Escritorio/rDock_CMTR_LC/2pxcA_model/inputs_sah

>  <Rbt.Executable>
rbdock ($Id: //depot/dev/client3/rdock/2013.1/src/exe/rbdock.cxx#4 $)

>  <Rbt.Library>
libRbt.so (2013.1, Build901 2013/11/27)

>  <Rbt.Parameter_File>
/home/adria/Escritorio/rDock_2013.1_src/data/scripts/dock.prm

>  <Rbt.Receptor>
sah_rdock.prm

>  <SCORE>
-298.909

>  <SCORE.INTER>
-6.56261

>  <SCORE.INTER.CONST>
1

>  <SCORE.INTER.POLAR>
-0.163582

>  <SCORE.INTER.REPUL>
0.15656

>  <SCORE.INTER.ROT>
5

>  <SCORE.INTER.VDW>
-17.1892

>  <SCORE.INTER.norm>
-0.226297

>  <SCORE.INTRA>
-286.456

>  <SCORE.INTRA.DIHEDRAL>
0.329182

>  <SCORE.INTRA.DIHEDRAL.0>
17.2324

>  <SCORE.INTRA.POLAR>
0

>  <SCORE.INTRA.POLAR.0>
0

>  <SCORE.INTRA.REPUL>
0

>  <SCORE.INTRA.REPUL.0>
0

>  <SCORE.INTRA.VDW>
-286.621

>  <SCORE.INTRA.VDW.0>
284.832

>  <SCORE.INTRA.norm>
-9.87779

>  <SCORE.RESTR>
0

>  <SCORE.RESTR.CAVITY>
0

>  <SCORE.RESTR.norm>
0

>  <SCORE.SYSTEM>
-5.88999

>  <SCORE.SYSTEM.CONST>
0

>  <SCORE.SYSTEM.DIHEDRAL>
10.3414

>  <SCORE.SYSTEM.POLAR>
-4.32639

>  <SCORE.SYSTEM.VDW>
3.64903

>  <SCORE.SYSTEM.norm>
-0.203103

>  <SCORE.heavy>
29

>  <SCORE.norm>
-10.3072

$$$$
F3398-2641
  rDOCK(R)          3D
libRbt.so/2013.1/901 2013/11/27
 29 32  0  0  0  0  0  0  0  0999 V2000
  -14.9013   14.5970  -19.5935 C   0  0  0  0  0  0
  -15.7499   14.7766  -18.4122 N   0  0  0  0  0  0
  -15.3402   14.1293  -17.1216 C   0  0  0  0  0  0
  -16.1927   12.9632  -16.6239 C   0  0  0  0  0  0
  -17.5564   12.1275  -17.4117 C   0  0  0  0  0  0
  -18.9843   11.5002  -16.4534 C   0  0  0  0  0  0
  -19.2019   11.7068  -14.7049 C   0  0  0  0  0  0
  -17.8965   12.4620  -13.8623 C   0  0  0  0  0  0
  -16.2303   13.0532  -14.8630 C   0  0  0  0  0  0
  -17.0428   15.2047  -18.6887 C   0  0  0  0  0  0
  -17.5297   15.1184  -19.8177 O   0  0  0  0  0  0
  -17.8364   15.7545  -17.6142 C   0  0  0  0  0  0
  -17.8743   17.0509  -17.0163 C   0  0  0  0  0  0
  -18.9607   16.7861  -15.9945 N   0  0  0  0  0  0
  -19.2311   15.4470  -15.9793 N   0  0  0  0  0  0
  -18.6472   14.8545  -16.9804 N   0  0  0  0  0  0
  -19.6762   17.5219  -14.9463 C   0  0  0  0  0  0
  -19.4379   18.8654  -14.6821 C   0  0  0  0  0  0
  -19.7674   19.4362  -13.4415 C   0  0  0  0  0  0
  -20.7052   18.8193  -12.6376 C   0  0  0  0  0  0
  -21.3644   19.6881  -11.3091 Cl  0  0  0  0  0  0
  -21.1816   17.5648  -12.9984 C   0  0  0  0  0  0
  -20.6046   16.8774  -14.0893 C   0  0  0  0  0  0
  -16.5201   18.1618  -17.0498 C   0  0  0  0  0  0
  -16.7627   19.7303  -16.1646 C   0  0  0  0  0  0
  -15.5797   21.0447  -16.3379 N   0  0  0  0  0  0
  -14.1431   20.8864  -17.3634 C   0  0  0  0  0  0
  -13.7380   19.5305  -18.3148 C   0  0  0  0  0  0
  -14.8644   18.2171  -18.2651 C   0  0  0  0  0  0
  1  2  1  0  0  0
  2  3  1  0  0  0
  2 10  1  0  0  0
  3  4  1  0  0  0
  4  5  2  0  0  0
  4  9  1  0  0  0
  5  6  1  0  0  0
  6  7  2  0  0  0
  7  8  1  0  0  0
  8  9  2  0  0  0
 10 11  2  0  0  0
 10 12  1  0  0  0
 12 13  2  0  0  0
 12 16  1  0  0  0
 13 14  1  0  0  0
 13 24  1  0  0  0
 14 15  1  0  0  0
 14 17  1  0  0  0
 15 16  2  0  0  0
 17 18  2  0  0  0
 17 23  1  0  0  0
 18 19  1  0  0  0
 19 20  2  0  0  0
 20 21  1  0  0  0
 20 22  1  0  0  0
 22 23  2  0  0  0
 24 25  2  0  0  0
 24 29  1  0  0  0
 25 26  1  0  0  0
 26 27  2  0  0  0
 27 28  1  0  0  0
 28 29  2  0  0  0
M  END
>  <CHROM.0>
-176.34134021,-167.39090160,-44.72882082,-66.23886757,-31.10791405,41.73225154
-37.59297279,-161.83990222

>  <CHROM.1>
-110.41637309,5.92976950,81.00757218,-177.46104962,1.35790012,-17.88388385
16.50346836,-15.94368994,-0.77502633,0.77363986,0.20300280

>  <Name>
F3398-2641

>  <RI>
1.8803e+07

>  <Rbt.Current_Directory>
/home/adria/Escritorio/rDock_CMTR_LC/2pxcA_model/inputs_sah

>  <Rbt.Executable>
rbdock ($Id: //depot/dev/client3/rdock/2013.1/src/exe/rbdock.cxx#4 $)

>  <Rbt.Library>
libRbt.so (2013.1, Build901 2013/11/27)

>  <Rbt.Parameter_File>
/home/adria/Escritorio/rDock_2013.1_src/data/scripts/dock.prm

>  <Rbt.Receptor>
sah_rdock.prm

>  <SCORE>
-307.91

>  <SCORE.INTER>
-12.8566

>  <SCORE.INTER.CONST>
1

>  <SCORE.INTER.POLAR>
-0.079589

>  <SCORE.INTER.REPUL>
0

>  <SCORE.INTER.ROT>
5

>  <SCORE.INTER.VDW>
-22.986

>  <SCORE.INTER.norm>
-0.44333

>  <SCORE.INTRA>
-290.581

>  <SCORE.INTRA.DIHEDRAL>
-3.05754

>  <SCORE.INTRA.DIHEDRAL.0>
17.2324

>  <SCORE.INTRA.POLAR>
0

>  <SCORE.INTRA.POLAR.0>
0

>  <SCORE.INTRA.REPUL>
0

>  <SCORE.INTRA.REPUL.0>
0

>  <SCORE.INTRA.VDW>
-289.052

>  <SCORE.INTRA.VDW.0>
284.832

>  <SCORE.INTRA.norm>
-10.02

>  <SCORE.RESTR>
0.647517

>  <SCORE.RESTR.CAVITY>
0.647517

>  <SCORE.RESTR.norm>
0.0223282

>  <SCORE.SYSTEM>
-5.11994

>  <SCORE.SYSTEM.CONST>
0

>  <SCORE.SYSTEM.DIHEDRAL>
7.28067

>  <SCORE.SYSTEM.POLAR>
-3.64689

>  <SCORE.SYSTEM.VDW>
3.63916

>  <SCORE.SYSTEM.norm>
-0.17655

>  <SCORE.heavy>
29

>  <SCORE.norm>
-10.6176

$$$$
F3398-2641
  rDOCK(R)          3D
libRbt.so/2013.1/901 2013/11/27
 29 32  0  0  0  0  0  0  0  0999 V2000
  -24.5619   18.9966   -8.9642 C   0  0  0  0  0  0
  -23.4824   19.2744   -9.9158 N   0  0  0  0  0  0
  -22.6053   20.4705   -9.6863 C   0  0  0  0  0  0
  -22.9048   21.7237  -10.5072 C   0  0  0  0  0  0
  -22.1378   22.3200  -12.0022 C   0  0  0  0  0  0
  -21.8993   24.1078  -12.3149 C   0  0  0  0  0  0
  -22.3229   25.4018  -11.1777 C   0  0  0  0  0  0
  -23.1190   24.9058   -9.7270 C   0  0  0  0  0  0
  -23.5282   22.9435   -9.3965 C   0  0  0  0  0  0
  -23.6122   18.6319  -11.1412 C   0  0  0  0  0  0
  -24.6843   18.1512  -11.5139 O   0  0  0  0  0  0
  -22.4559   18.5391  -12.0020 C   0  0  0  0  0  0
  -22.2347   18.9338  -13.3566 C   0  0  0  0  0  0
  -20.7899   18.4948  -13.4764 N   0  0  0  0  0  0
  -20.4575   17.7730  -12.3652 N   0  0  0  0  0  0
  -21.3913   17.8714  -11.4637 N   0  0  0  0  0  0
  -19.7268   18.5030  -14.4872 C   0  0  0  0  0  0
  -18.3897   18.3014  -14.1660 C   0  0  0  0  0  0
  -17.3597   18.7405  -15.0144 C   0  0  0  0  0  0
  -17.6319   18.9773  -16.3471 C   0  0  0  0  0  0
  -16.3223   19.1619  -17.4448 Cl  0  0  0  0  0  0
  -18.9503   18.9334  -16.7839 C   0  0  0  0  0  0
  -19.9997   18.7932  -15.8485 C   0  0  0  0  0  0
  -23.5257   19.1039  -14.5285 C   0  0  0  0  0  0
  -25.1612   19.5111  -13.8488 C   0  0  0  0  0  0
  -26.5996   19.4540  -14.8905 N   0  0  0  0  0  0
  -26.5029   19.0036  -16.6017 C   0  0  0  0  0  0
  -25.0891   18.5427  -17.4362 C   0  0  0  0  0  0
  -23.6401   18.5037  -16.4901 C   0  0  0  0  0  0
  1  2  1  0  0  0
  2  3  1  0  0  0
  2 10  1  0  0  0
  3  4  1  0  0  0
  4  5  2  0  0  0
  4  9  1  0  0  0
  5  6  1  0  0  0
  6  7  2  0  0  0
  7  8  1  0  0  0
  8  9  2  0  0  0
 10 11  2  0  0  0
 10 12  1  0  0  0
 12 13  2  0  0  0
 12 16  1  0  0  0
 13 14  1  0  0  0
 13 24  1  0  0  0
 14 15  1  0  0  0
 14 17  1  0  0  0
 15 16  2  0  0  0
 17 18  2  0  0  0
 17 23  1  0  0  0
 18 19  1  0  0  0
 19 20  2  0  0  0
 20 21  1  0  0  0
 20 22  1  0  0  0
 22 23  2  0  0  0
 24 25  2  0  0  0
 24 29  1  0  0  0
 25 26  1  0  0  0
 26 27  2  0  0  0
 27 28  1  0  0  0
 28 29  2  0  0  0
M  END
>  <CHROM.0>
-62.01863968,64.95585241,-129.03481202,64.09215385,-31.89096600,-177.14017890
-39.07882889,-162.53662598

>  <CHROM.1>
-100.32653136,-98.15806931,-124.86559819,27.24409505,164.00267036,-21.82964922
19.74127538,-13.38716646,2.36010335,0.20478012,0.96900531

>  <Name>
F3398-2641

>  <RI>
1.8803e+07

>  <Rbt.Current_Directory>
/home/adria/Escritorio/rDock_CMTR_LC/2pxcA_model/inputs_sah

>  <Rbt.Executable>
rbdock ($Id: //depot/dev/client3/rdock/2013.1/src/exe/rbdock.cxx#4 $)

>  <Rbt.Library>
libRbt.so (2013.1, Build901 2013/11/27)

>  <Rbt.Parameter_File>
/home/adria/Escritorio/rDock_2013.1_src/data/scripts/dock.prm

>  <Rbt.Receptor>
sah_rdock.prm

>  <SCORE>
-305.591

>  <SCORE.INTER>
-8.92538

>  <SCORE.INTER.CONST>
1

>  <SCORE.INTER.POLAR>
-0.763468

>  <SCORE.INTER.REPUL>
0

>  <SCORE.INTER.ROT>
5

>  <SCORE.INTER.VDW>
-16.7296

>  <SCORE.INTER.norm>
-0.307772

>  <SCORE.INTRA>
-289.931

>  <SCORE.INTRA.DIHEDRAL>
-4.30547

>  <SCORE.INTRA.DIHEDRAL.0>
17.2324

>  <SCORE.INTRA.POLAR>
0

>  <SCORE.INTRA.POLAR.0>
0

>  <SCORE.INTRA.REPUL>
0

>  <SCORE.INTRA.REPUL.0>
0

>  <SCORE.INTRA.VDW>
-287.778

>  <SCORE.INTRA.VDW.0>
284.832

>  <SCORE.INTRA.norm>
-9.99761

>  <SCORE.RESTR>
0.00715786

>  <SCORE.RESTR.CAVITY>
0.00715786

>  <SCORE.RESTR.norm>
0.000246823

>  <SCORE.SYSTEM>
-6.74207

>  <SCORE.SYSTEM.CONST>
0

>  <SCORE.SYSTEM.DIHEDRAL>
8.29826

>  <SCORE.SYSTEM.POLAR>
-4.15206

>  <SCORE.SYSTEM.VDW>
3.2258

>  <SCORE.SYSTEM.norm>
-0.232485

>  <SCORE.heavy>
29

>  <SCORE.norm>
-10.5376

$$$$
F3398-2641
  rDOCK(R)          3D
libRbt.so/2013.1/901 2013/11/27
 29 32  0  0  0  0  0  0  0  0999 V2000
  -24.8412   18.9816   -9.2951 C   0  0  0  0  0  0
  -23.6374   19.1768  -10.1079 N   0  0  0  0  0  0
  -22.6206   20.1875   -9.6641 C   0  0  0  0  0  0
  -22.4458   21.4308  -10.5347 C   0  0  0  0  0  0
  -21.1046   21.8880  -11.6168 C   0  0  0  0  0  0
  -20.5744   23.6293  -11.8100 C   0  0  0  0  0  0
  -21.2609   25.0032  -10.9221 C   0  0  0  0  0  0
  -22.6011   24.6469   -9.8919 C   0  0  0  0  0  0
  -23.3134   22.7496   -9.7485 C   0  0  0  0  0  0
  -23.7310   18.6897  -11.4061 C   0  0  0  0  0  0
  -24.8171   18.4270  -11.9261 O   0  0  0  0  0  0
  -22.5167   18.4995  -12.1651 C   0  0  0  0  0  0
  -22.2467   18.5350  -13.5671 C   0  0  0  0  0  0
  -20.7606   18.2476  -13.5083 N   0  0  0  0  0  0
  -20.4323   17.8965  -12.2294 N   0  0  0  0  0  0
  -21.4289   18.1285  -11.4249 N   0  0  0  0  0  0
  -19.6390   18.1027  -14.4426 C   0  0  0  0  0  0
  -19.6280   17.1489  -15.4535 C   0  0  0  0  0  0
  -18.4258   16.7155  -16.0367 C   0  0  0  0  0  0
  -17.3002   17.5096  -15.9429 C   0  0  0  0  0  0
  -15.9484   17.1603  -16.9453 Cl  0  0  0  0  0  0
  -17.3386   18.6406  -15.1365 C   0  0  0  0  0  0
  -18.4631   18.8858  -14.3172 C   0  0  0  0  0  0
  -23.4678   18.2331  -14.7863 C   0  0  0  0  0  0
  -22.9316   17.2449  -16.2140 C   0  0  0  0  0  0
  -23.9849   17.0876  -17.6363 N   0  0  0  0  0  0
  -25.5703   17.8746  -17.7228 C   0  0  0  0  0  0
  -26.2545   18.8796  -16.5272 C   0  0  0  0  0  0
  -25.2756   19.1488  -15.1252 C   0  0  0  0  0  0
  1  2  1  0  0  0
  2  3  1  0  0  0
  2 10  1  0  0  0
  3  4  1  0  0  0
  4  5  2  0  0  0
  4  9  1  0  0  0
  5  6  1  0  0  0
  6  7  2  0  0  0
  7  8  1  0  0  0
  8  9  2  0  0  0
 10 11  2  0  0  0
 10 12  1  0  0  0
 12 13  2  0  0  0
 12 16  1  0  0  0
 13 14  1  0  0  0
 13 24  1  0  0  0
 14 15  1  0  0  0
 14 17  1  0  0  0
 15 16  2  0  0  0
 17 18  2  0  0  0
 17 23  1  0  0  0
 18 19  1  0  0  0
 19 20  2  0  0  0
 20 21  1  0  0  0
 20 22  1  0  0  0
 22 23  2  0  0  0
 24 25  2  0  0  0
 24 29  1  0  0  0
 25 26  1  0  0  0
 26 27  2  0  0  0
 27 28  1  0  0  0
 28 29  2  0  0  0
M  END
>  <CHROM.0>
39.66925549,-168.00808979,72.79041337,69.19417859,168.07979972,-55.84335722
84.01879538,-162.40948639

>  <CHROM.1>
-112.48622547,-107.91826622,-151.83722126,-139.78108980,-59.03811058,-21.53224831
19.14033871,-13.47306796,2.20620003,0.08180377,0.89806949

>  <Name>
F3398-2641

>  <RI>
1.8803e+07

>  <Rbt.Current_Directory>
/home/adria/Escritorio/rDock_CMTR_LC/2pxcA_model/inputs_sah

>  <Rbt.Executable>
rbdock ($Id: //depot/dev/client3/rdock/2013.1/src/exe/rbdock.cxx#4 $)

>  <Rbt.Library>
libRbt.so (2013.1, Build901 2013/11/27)

>  <Rbt.Parameter_File>
/home/adria/Escritorio/rDock_2013.1_src/data/scripts/dock.prm

>  <Rbt.Receptor>
sah_rdock.prm

>  <SCORE>
-294.382

>  <SCORE.INTER>
-9.58663

>  <SCORE.INTER.CONST>
1

>  <SCORE.INTER.POLAR>
-0.5892

>  <SCORE.INTER.REPUL>
0.0330795

>  <SCORE.INTER.ROT>
5

>  <SCORE.INTER.VDW>
-18.1487

>  <SCORE.INTER.norm>
-0.330573

>  <SCORE.INTRA>
-287.65

>  <SCORE.INTRA.DIHEDRAL>
1.15984

>  <SCORE.INTRA.DIHEDRAL.0>
17.2324

>  <SCORE.INTRA.POLAR>
0

>  <SCORE.INTRA.POLAR.0>
0

>  <SCORE.INTRA.REPUL>
0

>  <SCORE.INTRA.REPUL.0>
0

>  <SCORE.INTRA.VDW>
-288.23

>  <SCORE.INTRA.VDW.0>
284.832

>  <SCORE.INTRA.norm>
-9.91896

>  <SCORE.RESTR>
0

>  <SCORE.RESTR.CAVITY>
0

>  <SCORE.RESTR.norm>
0

>  <SCORE.SYSTEM>
2.85452

>  <SCORE.SYSTEM.CONST>
0

>  <SCORE.SYSTEM.DIHEDRAL>
5.74424

>  <SCORE.SYSTEM.POLAR>
-3.59621

>  <SCORE.SYSTEM.REPUL>
0.124274

>  <SCORE.SYSTEM.VDW>
11.5882

>  <SCORE.SYSTEM.norm>
0.0984317

>  <SCORE.heavy>
29

>  <SCORE.norm>
-10.1511

$$$$
F3398-2641
  rDOCK(R)          3D
libRbt.so/2013.1/901 2013/11/27
 29 32  0  0  0  0  0  0  0  0999 V2000
  -24.9667   18.7602   -9.8766 C   0  0  0  0  0  0
  -23.8927   19.0321  -10.8361 N   0  0  0  0  0  0
  -23.7899   20.4032  -11.4379 C   0  0  0  0  0  0
  -22.9806   21.4450  -10.6673 C   0  0  0  0  0  0
  -23.5327   22.8724   -9.7527 C   0  0  0  0  0  0
  -22.5679   24.4276   -9.7207 C   0  0  0  0  0  0
  -21.0647   24.7074  -10.6203 C   0  0  0  0  0  0
  -20.4379   23.3526  -11.4897 C   0  0  0  0  0  0
  -21.4021   21.5650  -11.4446 C   0  0  0  0  0  0
  -23.3085   17.8978  -11.3869 C   0  0  0  0  0  0
  -23.8544   16.7940  -11.3352 O   0  0  0  0  0  0
  -22.0303   18.0267  -12.0475 C   0  0  0  0  0  0
  -21.6738   18.2205  -13.4167 C   0  0  0  0  0  0
  -20.1690   18.2534  -13.2456 N   0  0  0  0  0  0
  -19.8655   17.8888  -11.9645 N   0  0  0  0  0  0
  -20.9443   17.8438  -11.2375 N   0  0  0  0  0  0
  -18.9782   18.4193  -14.0861 C   0  0  0  0  0  0
  -18.1515   19.5331  -13.9980 C   0  0  0  0  0  0
  -17.3099   19.9049  -15.0595 C   0  0  0  0  0  0
  -16.9598   18.9662  -16.0096 C   0  0  0  0  0  0
  -15.6662   19.3135  -17.0867 Cl  0  0  0  0  0  0
  -17.5763   17.7211  -15.9861 C   0  0  0  0  0  0
  -18.6450   17.4791  -15.0944 C   0  0  0  0  0  0
  -22.7077   17.7541  -14.7518 C   0  0  0  0  0  0
  -21.8896   17.5950  -16.3667 C   0  0  0  0  0  0
  -22.8590   17.3868  -17.8411 N   0  0  0  0  0  0
  -24.6298   17.3297  -17.8009 C   0  0  0  0  0  0
  -25.6046   17.5014  -16.4125 C   0  0  0  0  0  0
  -24.7545   17.7743  -14.9295 C   0  0  0  0  0  0
  1  2  1  0  0  0
  2  3  1  0  0  0
  2 10  1  0  0  0
  3  4  1  0  0  0
  4  5  2  0  0  0
  4  9  1  0  0  0
  5  6  1  0  0  0
  6  7  2  0  0  0
  7  8  1  0  0  0
  8  9  2  0  0  0
 10 11  2  0  0  0
 10 12  1  0  0  0
 12 13  2  0  0  0
 12 16  1  0  0  0
 13 14  1  0  0  0
 13 24  1  0  0  0
 14 15  1  0  0  0
 14 17  1  0  0  0
 15 16  2  0  0  0
 17 18  2  0  0  0
 17 23  1  0  0  0
 18 19  1  0  0  0
 19 20  2  0  0  0
 20 21  1  0  0  0
 20 22  1  0  0  0
 22 23  2  0  0  0
 24 25  2  0  0  0
 24 29  1  0  0  0
 25 26  1  0  0  0
 26 27  2  0  0  0
 27 28  1  0  0  0
 28 29  2  0  0  0
M  END
>  <CHROM.0>
-177.56346919,-167.70198202,-5.81309736,66.26533753,-29.13992923,59.66029407
-57.65990608,-160.98524679

>  <CHROM.1>
87.36732823,-108.05903357,-94.55975669,-161.45145200,112.51444435,-21.18006873
19.22895762,-13.47910027,2.41312215,0.34443709,0.85359497

>  <Name>
F3398-2641

>  <RI>
1.8803e+07

>  <Rbt.Current_Directory>
/home/adria/Escritorio/rDock_CMTR_LC/2pxcA_model/inputs_sah

>  <Rbt.Executable>
rbdock ($Id: //depot/dev/client3/rdock/2013.1/src/exe/rbdock.cxx#4 $)

>  <Rbt.Library>
libRbt.so (2013.1, Build901 2013/11/27)

>  <Rbt.Parameter_File>
/home/adria/Escritorio/rDock_2013.1_src/data/scripts/dock.prm

>  <Rbt.Receptor>
sah_rdock.prm

>  <SCORE>
-302.237

>  <SCORE.INTER>
-13.3915

>  <SCORE.INTER.CONST>
1

>  <SCORE.INTER.POLAR>
-1.26912

>  <SCORE.INTER.REPUL>
0.0941577

>  <SCORE.INTER.ROT>
5

>  <SCORE.INTER.VDW>
-19.9473

>  <SCORE.INTER.norm>
-0.461777

>  <SCORE.INTRA>
-284.22

>  <SCORE.INTRA.DIHEDRAL>
8.84384

>  <SCORE.INTRA.DIHEDRAL.0>
17.2324

>  <SCORE.INTRA.POLAR>
0

>  <SCORE.INTRA.POLAR.0>
0

>  <SCORE.INTRA.REPUL>
0

>  <SCORE.INTRA.REPUL.0>
0

>  <SCORE.INTRA.VDW>
-288.642

>  <SCORE.INTRA.VDW.0>
284.832

>  <SCORE.INTRA.norm>
-9.8007

>  <SCORE.RESTR>
0.00463205

>  <SCORE.RESTR.CAVITY>
0.00463205

>  <SCORE.RESTR.norm>
0.000159726

>  <SCORE.SYSTEM>
-4.63013

>  <SCORE.SYSTEM.CONST>
0

>  <SCORE.SYSTEM.DIHEDRAL>
8.74556

>  <SCORE.SYSTEM.POLAR>
-3.71689

>  <SCORE.SYSTEM.VDW>
3.6345

>  <SCORE.SYSTEM.norm>
-0.15966

>  <SCORE.heavy>
29

>  <SCORE.norm>
-10.422

$$$$
F3398-2641
  rDOCK(R)          3D
libRbt.so/2013.1/901 2013/11/27
 29 32  0  0  0  0  0  0  0  0999 V2000
  -24.5134   16.1028  -14.9347 C   0  0  0  0  0  0
  -24.4710   17.3077  -14.1012 N   0  0  0  0  0  0
  -25.2377   17.3225  -12.8111 C   0  0  0  0  0  0
  -24.4862   17.7673  -11.5574 C   0  0  0  0  0  0
  -24.9417   18.9646  -10.3173 C   0  0  0  0  0  0
  -23.6959   20.0345   -9.5087 C   0  0  0  0  0  0
  -21.9661   20.0531   -9.9021 C   0  0  0  0  0  0
  -21.4389   18.8831  -11.0587 C   0  0  0  0  0  0
  -22.7630   17.5819  -11.8836 C   0  0  0  0  0  0
  -24.0425   18.4528  -14.7617 C   0  0  0  0  0  0
  -24.0234   18.5262  -15.9920 O   0  0  0  0  0  0
  -23.6200   19.5895  -13.9768 C   0  0  0  0  0  0
  -22.3650   20.2610  -13.8600 C   0  0  0  0  0  0
  -22.7791   21.3205  -12.8597 N   0  0  0  0  0  0
  -24.0312   21.0242  -12.4004 N   0  0  0  0  0  0
  -24.5620   20.0719  -13.1114 N   0  0  0  0  0  0
  -22.1716   22.4574  -12.1594 C   0  0  0  0  0  0
  -20.8830   22.9006  -12.4329 C   0  0  0  0  0  0
  -20.1565   23.6576  -11.4988 C   0  0  0  0  0  0
  -20.8305   24.3366  -10.5034 C   0  0  0  0  0  0
  -19.9925   25.5319   -9.5960 Cl  0  0  0  0  0  0
  -22.1952   24.1259  -10.3487 C   0  0  0  0  0  0
  -22.8451   23.1248  -11.1045 C   0  0  0  0  0  0
  -20.8302   19.4919  -14.2091 C   0  0  0  0  0  0
  -19.3499   20.4821  -13.8476 C   0  0  0  0  0  0
  -17.7520   19.9302  -14.3947 N   0  0  0  0  0  0
  -17.5384   18.4222  -15.3007 C   0  0  0  0  0  0
  -18.7830   17.3632  -15.7875 C   0  0  0  0  0  0
  -20.3886   17.8466  -15.3576 C   0  0  0  0  0  0
  1  2  1  0  0  0
  2  3  1  0  0  0
  2 10  1  0  0  0
  3  4  1  0  0  0
  4  5  2  0  0  0
  4  9  1  0  0  0
  5  6  1  0  0  0
  6  7  2  0  0  0
  7  8  1  0  0  0
  8  9  2  0  0  0
 10 11  2  0  0  0
 10 12  1  0  0  0
 12 13  2  0  0  0
 12 16  1  0  0  0
 13 14  1  0  0  0
 13 24  1  0  0  0
 14 15  1  0  0  0
 14 17  1  0  0  0
 15 16  2  0  0  0
 17 18  2  0  0  0
 17 23  1  0  0  0
 18 19  1  0  0  0
 19 20  2  0  0  0
 20 21  1  0  0  0
 20 22  1  0  0  0
 22 23  2  0  0  0
 24 25  2  0  0  0
 24 29  1  0  0  0
 25 26  1  0  0  0
 26 27  2  0  0  0
 27 28  1  0  0  0
 28 29  2  0  0  0
M  END
>  <CHROM.0>
-63.95523328,-167.96055305,-127.33066585,65.40675149,-32.09930937,-60.37728784
-36.32754144,-161.08880312

>  <CHROM.1>
129.89483720,130.35740498,117.18816573,-174.57399539,6.37383916,-22.07201467
20.35812808,-12.60743779,1.90486774,-0.39643548,-2.47576412

>  <Name>
F3398-2641

>  <RI>
1.8803e+07

>  <Rbt.Current_Directory>
/home/adria/Escritorio/rDock_CMTR_LC/2pxcA_model/inputs_sah

>  <Rbt.Executable>
rbdock ($Id: //depot/dev/client3/rdock/2013.1/src/exe/rbdock.cxx#4 $)

>  <Rbt.Library>
libRbt.so (2013.1, Build901 2013/11/27)

>  <Rbt.Parameter_File>
/home/adria/Escritorio/rDock_2013.1_src/data/scripts/dock.prm

>  <Rbt.Receptor>
sah_rdock.prm

>  <SCORE>
-305.673

>  <SCORE.INTER>
-6.85798

>  <SCORE.INTER.CONST>
1

>  <SCORE.INTER.POLAR>
0

>  <SCORE.INTER.REPUL>
0.00498652

>  <SCORE.INTER.ROT>
5

>  <SCORE.INTER.VDW>
-17.2829

>  <SCORE.INTER.norm>
-0.236482

>  <SCORE.INTRA>
-292.894

>  <SCORE.INTRA.DIHEDRAL>
-5.72483

>  <SCORE.INTRA.DIHEDRAL.0>
17.2324

>  <SCORE.INTRA.POLAR>
0

>  <SCORE.INTRA.POLAR.0>
0

>  <SCORE.INTRA.REPUL>
0

>  <SCORE.INTRA.REPUL.0>
0

>  <SCORE.INTRA.VDW>
-290.031

>  <SCORE.INTRA.VDW.0>
284.832

>  <SCORE.INTRA.norm>
-10.0998

>  <SCORE.RESTR>
0

>  <SCORE.RESTR.CAVITY>
0

>  <SCORE.RESTR.norm>
0

>  <SCORE.SYSTEM>
-5.92145

>  <SCORE.SYSTEM.CONST>
0

>  <SCORE.SYSTEM.DIHEDRAL>
9.3054

>  <SCORE.SYSTEM.POLAR>
-4.22844

>  <SCORE.SYSTEM.VDW>
3.80254

>  <SCORE.SYSTEM.norm>
-0.204188

>  <SCORE.heavy>
29

>  <SCORE.norm>
-10.5405

$$$$
F3398-2641
  rDOCK(R)          3D
libRbt.so/2013.1/901 2013/11/27
 29 32  0  0  0  0  0  0  0  0999 V2000
  -24.3543   22.2870  -11.5761 C   0  0  0  0  0  0
  -23.2475   22.2180  -12.5344 N   0  0  0  0  0  0
  -22.8150   23.4744  -13.2321 C   0  0  0  0  0  0
  -21.7434   24.3203  -12.5465 C   0  0  0  0  0  0
  -20.1575   23.8404  -11.8880 C   0  0  0  0  0  0
  -19.4691   24.6113  -10.3773 C   0  0  0  0  0  0
  -20.3008   25.8285   -9.3904 C   0  0  0  0  0  0
  -21.8217   26.3831   -9.9932 C   0  0  0  0  0  0
  -22.5645   25.6557  -11.7386 C   0  0  0  0  0  0
  -22.9573   20.9381  -12.9915 C   0  0  0  0  0  0
  -23.7552   20.0066  -12.8692 O   0  0  0  0  0  0
  -21.6869   20.7035  -13.6378 C   0  0  0  0  0  0
  -21.3399   20.0652  -14.8673 C   0  0  0  0  0  0
  -19.8388   20.2537  -14.7926 N   0  0  0  0  0  0
  -19.5179   20.7290  -13.5527 N   0  0  0  0  0  0
  -20.5934   21.0786  -12.9081 N   0  0  0  0  0  0
  -18.6574   19.9391  -15.6034 C   0  0  0  0  0  0
  -18.7480   19.5451  -16.9332 C   0  0  0  0  0  0
  -17.7101   18.8334  -17.5572 C   0  0  0  0  0  0
  -16.4357   18.8874  -17.0285 C   0  0  0  0  0  0
  -15.1165   18.3239  -17.9752 Cl  0  0  0  0  0  0
  -16.2409   19.5104  -15.8018 C   0  0  0  0  0  0
  -17.3524   19.9484  -15.0479 C   0  0  0  0  0  0
  -22.3488   18.8588  -15.6391 C   0  0  0  0  0  0
  -21.7265   18.1981  -17.2135 C   0  0  0  0  0  0
  -22.7671   17.1717  -18.2238 N   0  0  0  0  0  0
  -24.4242   16.7592  -17.7502 C   0  0  0  0  0  0
  -25.2269   17.2996  -16.3461 C   0  0  0  0  0  0
  -24.3172   18.3608  -15.3250 C   0  0  0  0  0  0
  1  2  1  0  0  0
  2  3  1  0  0  0
  2 10  1  0  0  0
  3  4  1  0  0  0
  4  5  2  0  0  0
  4  9  1  0  0  0
  5  6  1  0  0  0
  6  7  2  0  0  0
  7  8  1  0  0  0
  8  9  2  0  0  0
 10 11  2  0  0  0
 10 12  1  0  0  0
 12 13  2  0  0  0
 12 16  1  0  0  0
 13 14  1  0  0  0
 13 24  1  0  0  0
 14 15  1  0  0  0
 14 17  1  0  0  0
 15 16  2  0  0  0
 17 18  2  0  0  0
 17 23  1  0  0  0
 18 19  1  0  0  0
 19 20  2  0  0  0
 20 21  1  0  0  0
 20 22  1  0  0  0
 22 23  2  0  0  0
 24 25  2  0  0  0
 24 29  1  0  0  0
 25 26  1  0  0  0
 26 27  2  0  0  0
 27 28  1  0  0  0
 28 29  2  0  0  0
M  END
>  <CHROM.0>
-58.56053436,65.86529438,-42.41759428,65.49603682,168.51121247,-176.36097489
81.68663481,-157.40935283

>  <CHROM.1>
89.25745475,50.60139808,-130.60457789,178.99664362,14.02175626,-20.66482702
20.69590339,-14.49369149,2.01359134,0.15622186,0.73337452

>  <Name>
F3398-2641

>  <RI>
1.8803e+07

>  <Rbt.Current_Directory>
/home/adria/Escritorio/rDock_CMTR_LC/2pxcA_model/inputs_sah

>  <Rbt.Executable>
rbdock ($Id: //depot/dev/client3/rdock/2013.1/src/exe/rbdock.cxx#4 $)

>  <Rbt.Library>
libRbt.so (2013.1, Build901 2013/11/27)

>  <Rbt.Parameter_File>
/home/adria/Escritorio/rDock_2013.1_src/data/scripts/dock.prm

>  <Rbt.Receptor>
sah_rdock.prm

>  <SCORE>
-305.279

>  <SCORE.INTER>
-12.6517

>  <SCORE.INTER.CONST>
1

>  <SCORE.INTER.POLAR>
0

>  <SCORE.INTER.REPUL>
0

>  <SCORE.INTER.ROT>
5

>  <SCORE.INTER.VDW>
-23.0517

>  <SCORE.INTER.norm>
-0.436264

>  <SCORE.INTRA>
-290.694

>  <SCORE.INTRA.DIHEDRAL>
-5.54167

>  <SCORE.INTRA.DIHEDRAL.0>
17.2324

>  <SCORE.INTRA.POLAR>
0

>  <SCORE.INTRA.POLAR.0>
0

>  <SCORE.INTRA.REPUL>
0

>  <SCORE.INTRA.REPUL.0>
0

>  <SCORE.INTRA.VDW>
-287.923

>  <SCORE.INTRA.VDW.0>
284.832

>  <SCORE.INTRA.norm>
-10.0239

>  <SCORE.RESTR>
0

>  <SCORE.RESTR.CAVITY>
0

>  <SCORE.RESTR.norm>
0

>  <SCORE.SYSTEM>
-1.93361

>  <SCORE.SYSTEM.CONST>
0

>  <SCORE.SYSTEM.DIHEDRAL>
3.4515

>  <SCORE.SYSTEM.POLAR>
-3.54834

>  <SCORE.SYSTEM.VDW>
8.40498

>  <SCORE.SYSTEM.norm>
-0.0666763

>  <SCORE.heavy>
29

>  <SCORE.norm>
-10.5269

$$$$
F3398-2641
  rDOCK(R)          3D
libRbt.so/2013.1/901 2013/11/27
 29 32  0  0  0  0  0  0  0  0999 V2000
  -20.5465   21.3059  -13.6413 C   0  0  0  0  0  0
  -20.0902   19.9164  -13.5458 N   0  0  0  0  0  0
  -20.4241   19.1282  -12.3131 C   0  0  0  0  0  0
  -21.8739   19.1646  -11.8324 C   0  0  0  0  0  0
  -23.3751   19.4480  -12.7516 C   0  0  0  0  0  0
  -24.7865   20.3644  -12.0313 C   0  0  0  0  0  0
  -24.7963   21.1104  -10.4218 C   0  0  0  0  0  0
  -23.3951   20.8345   -9.4496 C   0  0  0  0  0  0
  -21.8583   19.7084  -10.1549 C   0  0  0  0  0  0
  -19.0704   19.5807  -14.4282 C   0  0  0  0  0  0
  -18.3900   20.4390  -14.9937 O   0  0  0  0  0  0
  -18.7985   18.1837  -14.6754 C   0  0  0  0  0  0
  -17.6803   17.5128  -15.2578 C   0  0  0  0  0  0
  -18.1908   16.0922  -15.1315 N   0  0  0  0  0  0
  -19.4985   16.1298  -14.7379 N   0  0  0  0  0  0
  -19.8315   17.3372  -14.3835 N   0  0  0  0  0  0
  -17.7311   14.7352  -15.4460 C   0  0  0  0  0  0
  -16.4817   14.4795  -15.9986 C   0  0  0  0  0  0
  -16.2205   13.2881  -16.6957 C   0  0  0  0  0  0
  -17.0235   12.1856  -16.4813 C   0  0  0  0  0  0
  -16.4986   10.6500  -17.0474 Cl  0  0  0  0  0  0
  -18.1680   12.3259  -15.7059 C   0  0  0  0  0  0
  -18.5731   13.6073  -15.2704 C   0  0  0  0  0  0
  -16.5781   18.2838  -16.3801 C   0  0  0  0  0  0
  -15.9328   17.2239  -17.7078 C   0  0  0  0  0  0
  -14.6146   17.8019  -18.7497 N   0  0  0  0  0  0
  -13.8855   19.4035  -18.5407 C   0  0  0  0  0  0
  -14.2990   20.5417  -17.3402 C   0  0  0  0  0  0
  -15.5323   20.0460  -16.2313 C   0  0  0  0  0  0
  1  2  1  0  0  0
  2  3  1  0  0  0
  2 10  1  0  0  0
  3  4  1  0  0  0
  4  5  2  0  0  0
  4  9  1  0  0  0
  5  6  1  0  0  0
  6  7  2  0  0  0
  7  8  1  0  0  0
  8  9  2  0  0  0
 10 11  2  0  0  0
 10 12  1  0  0  0
 12 13  2  0  0  0
 12 16  1  0  0  0
 13 14  1  0  0  0
 13 24  1  0  0  0
 14 15  1  0  0  0
 14 17  1  0  0  0
 15 16  2  0  0  0
 17 18  2  0  0  0
 17 23  1  0  0  0
 18 19  1  0  0  0
 19 20  2  0  0  0
 20 21  1  0  0  0
 20 22  1  0  0  0
 22 23  2  0  0  0
 24 25  2  0  0  0
 24 29  1  0  0  0
 25 26  1  0  0  0
 26 27  2  0  0  0
 27 28  1  0  0  0
 28 29  2  0  0  0
M  END
>  <CHROM.0>
-62.52606481,64.44988122,-9.07692082,-62.58313972,-30.67615211,-58.85297319
-156.23004090,-162.85335512

>  <CHROM.1>
48.35121017,26.28904449,-163.88558334,-144.28621449,1.81132399,-18.65066251
17.27813535,-14.85846170,-2.42291644,-0.64871697,-3.06505771

>  <Name>
F3398-2641

>  <RI>
1.8803e+07

>  <Rbt.Current_Directory>
/home/adria/Escritorio/rDock_CMTR_LC/2pxcA_model/inputs_sah

>  <Rbt.Executable>
rbdock ($Id: //depot/dev/client3/rdock/2013.1/src/exe/rbdock.cxx#4 $)

>  <Rbt.Library>
libRbt.so (2013.1, Build901 2013/11/27)

>  <Rbt.Parameter_File>
/home/adria/Escritorio/rDock_2013.1_src/data/scripts/dock.prm

>  <Rbt.Receptor>
sah_rdock.prm

>  <SCORE>
-308.887

>  <SCORE.INTER>
-10.1336

>  <SCORE.INTER.CONST>
1

>  <SCORE.INTER.POLAR>
0

>  <SCORE.INTER.REPUL>
0

>  <SCORE.INTER.ROT>
5

>  <SCORE.INTER.VDW>
-20.5336

>  <SCORE.INTER.norm>
-0.349436

>  <SCORE.INTRA>
-292.258

>  <SCORE.INTRA.DIHEDRAL>
-11.6083

>  <SCORE.INTRA.DIHEDRAL.0>
17.2324

>  <SCORE.INTRA.POLAR>
0

>  <SCORE.INTRA.POLAR.0>
0

>  <SCORE.INTRA.REPUL>
0

>  <SCORE.INTRA.REPUL.0>
0

>  <SCORE.INTRA.VDW>
-286.454

>  <SCORE.INTRA.VDW.0>
284.832

>  <SCORE.INTRA.norm>
-10.0779

>  <SCORE.RESTR>
0.554743

>  <SCORE.RESTR.CAVITY>
0.554743

>  <SCORE.RESTR.norm>
0.0191291

>  <SCORE.SYSTEM>
-7.05042

>  <SCORE.SYSTEM.CONST>
0

>  <SCORE.SYSTEM.DIHEDRAL>
8.67841

>  <SCORE.SYSTEM.POLAR>
-4.36833

>  <SCORE.SYSTEM.VDW>
3.46269

>  <SCORE.SYSTEM.norm>
-0.243118

>  <SCORE.heavy>
29

>  <SCORE.norm>
-10.6513

$$$$
F3398-2641
  rDOCK(R)          3D
libRbt.so/2013.1/901 2013/11/27
 29 32  0  0  0  0  0  0  0  0999 V2000
  -22.8324   21.9828  -10.3168 C   0  0  0  0  0  0
  -22.1454   21.5359  -11.5318 N   0  0  0  0  0  0
  -22.7043   21.9331  -12.8669 C   0  0  0  0  0  0
  -24.1933   21.6849  -13.1023 C   0  0  0  0  0  0
  -25.6081   22.2859  -12.1990 C   0  0  0  0  0  0
  -27.1040   21.2588  -11.9584 C   0  0  0  0  0  0
  -27.2844   19.5836  -12.5139 C   0  0  0  0  0  0
  -25.9743   18.9477  -13.4433 C   0  0  0  0  0  0
  -24.3496   20.0966  -13.8527 C   0  0  0  0  0  0
  -21.2686   20.4743  -11.3431 C   0  0  0  0  0  0
  -21.3133   19.7642  -10.3366 O   0  0  0  0  0  0
  -20.2874   20.1945  -12.3656 C   0  0  0  0  0  0
  -20.3604   19.4635  -13.5903 C   0  0  0  0  0  0
  -18.9296   19.6625  -14.0464 N   0  0  0  0  0  0
  -18.2205   20.2341  -13.0282 N   0  0  0  0  0  0
  -19.0226   20.6291  -12.0821 N   0  0  0  0  0  0
  -18.0857   19.2898  -15.1869 C   0  0  0  0  0  0
  -18.5204   18.4285  -16.1873 C   0  0  0  0  0  0
  -17.6098   17.7354  -17.0021 C   0  0  0  0  0  0
  -16.3175   18.2049  -17.1284 C   0  0  0  0  0  0
  -15.3230   17.5797  -18.3830 Cl  0  0  0  0  0  0
  -15.9006   19.2565  -16.3214 C   0  0  0  0  0  0
  -16.7427   19.7336  -15.2923 C   0  0  0  0  0  0
  -21.5351   18.1972  -13.8822 C   0  0  0  0  0  0
  -21.9388   17.8804  -15.6255 C   0  0  0  0  0  0
  -23.2961   16.8142  -16.0474 N   0  0  0  0  0  0
  -24.2961   16.0323  -14.8108 C   0  0  0  0  0  0
  -24.1292   16.2197  -13.1242 C   0  0  0  0  0  0
  -22.8720   17.2932  -12.6107 C   0  0  0  0  0  0
  1  2  1  0  0  0
  2  3  1  0  0  0
  2 10  1  0  0  0
  3  4  1  0  0  0
  4  5  2  0  0  0
  4  9  1  0  0  0
  5  6  1  0  0  0
  6  7  2  0  0  0
  7  8  1  0  0  0
  8  9  2  0  0  0
 10 11  2  0  0  0
 10 12  1  0  0  0
 12 13  2  0  0  0
 12 16  1  0  0  0
 13 14  1  0  0  0
 13 24  1  0  0  0
 14 15  1  0  0  0
 14 17  1  0  0  0
 15 16  2  0  0  0
 17 18  2  0  0  0
 17 23  1  0  0  0
 18 19  1  0  0  0
 19 20  2  0  0  0
 20 21  1  0  0  0
 20 22  1  0  0  0
 22 23  2  0  0  0
 24 25  2  0  0  0
 24 29  1  0  0  0
 25 26  1  0  0  0
 26 27  2  0  0  0
 27 28  1  0  0  0
 28 29  2  0  0  0
M  END
>  <CHROM.0>
39.39267374,66.69227860,-47.52284825,63.75513652,-31.81584029,65.31861488
81.47243938,-163.84426203

>  <CHROM.1>
-50.08685203,58.32176211,-82.90135081,155.39765303,-6.59260189,-20.99988984
19.31456686,-14.00310688,-2.64294131,-0.21332597,-2.34223622

>  <Name>
F3398-2641

>  <RI>
1.8803e+07

>  <Rbt.Current_Directory>
/home/adria/Escritorio/rDock_CMTR_LC/2pxcA_model/inputs_sah

>  <Rbt.Executable>
rbdock ($Id: //depot/dev/client3/rdock/2013.1/src/exe/rbdock.cxx#4 $)

>  <Rbt.Library>
libRbt.so (2013.1, Build901 2013/11/27)

>  <Rbt.Parameter_File>
/home/adria/Escritorio/rDock_2013.1_src/data/scripts/dock.prm

>  <Rbt.Receptor>
sah_rdock.prm

>  <SCORE>
-295.898

>  <SCORE.INTER>
-5.03946

>  <SCORE.INTER.CONST>
1

>  <SCORE.INTER.POLAR>
0

>  <SCORE.INTER.REPUL>
0

>  <SCORE.INTER.ROT>
5

>  <SCORE.INTER.VDW>
-15.4395

>  <SCORE.INTER.norm>
-0.173775

>  <SCORE.INTRA>
-288.159

>  <SCORE.INTRA.DIHEDRAL>
0.80988

>  <SCORE.INTRA.DIHEDRAL.0>
17.2324

>  <SCORE.INTRA.POLAR>
0

>  <SCORE.INTRA.POLAR.0>
0

>  <SCORE.INTRA.REPUL>
0

>  <SCORE.INTRA.REPUL.0>
0

>  <SCORE.INTRA.VDW>
-288.564

>  <SCORE.INTRA.VDW.0>
284.832

>  <SCORE.INTRA.norm>
-9.93652

>  <SCORE.RESTR>
0.0288352

>  <SCORE.RESTR.CAVITY>
0.0288352

>  <SCORE.RESTR.norm>
0.000994317

>  <SCORE.SYSTEM>
-2.72808

>  <SCORE.SYSTEM.CONST>
0

>  <SCORE.SYSTEM.DIHEDRAL>
7.28106

>  <SCORE.SYSTEM.POLAR>
-3.5338

>  <SCORE.SYSTEM.REPUL>
0.125161

>  <SCORE.SYSTEM.VDW>
5.02052

>  <SCORE.SYSTEM.norm>
-0.0940716

>  <SCORE.heavy>
29

>  <SCORE.norm>
-10.2034

$$$$
F3398-2641
  rDOCK(R)          3D
libRbt.so/2013.1/901 2013/11/27
 29 32  0  0  0  0  0  0  0  0999 V2000
  -25.4551   17.6085  -11.3774 C   0  0  0  0  0  0
  -24.3108   17.3651  -12.2602 N   0  0  0  0  0  0
  -24.4610   16.3837  -13.3857 C   0  0  0  0  0  0
  -24.5464   16.9524  -14.8012 C   0  0  0  0  0  0
  -24.5019   16.1134  -16.3737 C   0  0  0  0  0  0
  -23.6923   16.8554  -17.8382 C   0  0  0  0  0  0
  -22.8287   18.4050  -17.8435 C   0  0  0  0  0  0
  -22.8726   19.3026  -16.3681 C   0  0  0  0  0  0
  -23.8750   18.5825  -14.7545 C   0  0  0  0  0  0
  -23.0861   17.7727  -11.7451 C   0  0  0  0  0  0
  -22.9290   18.0027  -10.5444 O   0  0  0  0  0  0
  -21.9673   17.9172  -12.6473 C   0  0  0  0  0  0
  -21.0717   19.0010  -12.8984 C   0  0  0  0  0  0
  -20.2165   18.3340  -13.9560 N   0  0  0  0  0  0
  -20.8003   17.1504  -14.3094 N   0  0  0  0  0  0
  -21.7681   16.8587  -13.4892 N   0  0  0  0  0  0
  -19.0524   18.6631  -14.7856 C   0  0  0  0  0  0
  -18.3434   17.6994  -15.4930 C   0  0  0  0  0  0
  -17.0183   17.9211  -15.9035 C   0  0  0  0  0  0
  -16.5459   19.2145  -16.0048 C   0  0  0  0  0  0
  -15.0696   19.4993  -16.8375 Cl  0  0  0  0  0  0
  -17.3375   20.2592  -15.5435 C   0  0  0  0  0  0
  -18.5382   19.9833  -14.8522 C   0  0  0  0  0  0
  -21.4805   20.6750  -12.5831 C   0  0  0  0  0  0
  -23.1167   20.9637  -11.8469 C   0  0  0  0  0  0
  -23.7587   22.6156  -11.7196 N   0  0  0  0  0  0
  -22.8503   24.0236  -12.2964 C   0  0  0  0  0  0
  -21.3245   23.9864  -13.0568 C   0  0  0  0  0  0
  -20.6406   22.4130  -13.2869 C   0  0  0  0  0  0
  1  2  1  0  0  0
  2  3  1  0  0  0
  2 10  1  0  0  0
  3  4  1  0  0  0
  4  5  2  0  0  0
  4  9  1  0  0  0
  5  6  1  0  0  0
  6  7  2  0  0  0
  7  8  1  0  0  0
  8  9  2  0  0  0
 10 11  2  0  0  0
 10 12  1  0  0  0
 12 13  2  0  0  0
 12 16  1  0  0  0
 13 14  1  0  0  0
 13 24  1  0  0  0
 14 15  1  0  0  0
 14 17  1  0  0  0
 15 16  2  0  0  0
 17 18  2  0  0  0
 17 23  1  0  0  0
 18 19  1  0  0  0
 19 20  2  0  0  0
 20 21  1  0  0  0
 20 22  1  0  0  0
 22 23  2  0  0  0
 24 25  2  0  0  0
 24 29  1  0  0  0
 25 26  1  0  0  0
 26 27  2  0  0  0
 27 28  1  0  0  0
 28 29  2  0  0  0
M  END
>  <CHROM.0>
-60.02304266,-166.38802828,111.06060292,67.69828110,-29.77175568,-178.80340765
-156.34661209,-159.48948831

>  <CHROM.1>
107.34355912,170.63982636,126.59160759,2.18945715,166.93789749,-21.19424830
18.99195655,-14.20369313,3.00721873,0.41306092,0.58224581

>  <Name>
F3398-2641

>  <RI>
1.8803e+07

>  <Rbt.Current_Directory>
/home/adria/Escritorio/rDock_CMTR_LC/2pxcA_model/inputs_sah

>  <Rbt.Executable>
rbdock ($Id: //depot/dev/client3/rdock/2013.1/src/exe/rbdock.cxx#4 $)

>  <Rbt.Library>
libRbt.so (2013.1, Build901 2013/11/27)

>  <Rbt.Parameter_File>
/home/adria/Escritorio/rDock_2013.1_src/data/scripts/dock.prm

>  <Rbt.Receptor>
sah_rdock.prm

>  <SCORE>
-305.037

>  <SCORE.INTER>
-8.2183

>  <SCORE.INTER.CONST>
1

>  <SCORE.INTER.POLAR>
0

>  <SCORE.INTER.REPUL>
0

>  <SCORE.INTER.ROT>
5

>  <SCORE.INTER.VDW>
-18.6183

>  <SCORE.INTER.norm>
-0.28339

>  <SCORE.INTRA>
-290.517

>  <SCORE.INTRA.DIHEDRAL>
-5.33164

>  <SCORE.INTRA.DIHEDRAL.0>
17.2324

>  <SCORE.INTRA.POLAR>
0

>  <SCORE.INTRA.POLAR.0>
0

>  <SCORE.INTRA.REPUL>
0

>  <SCORE.INTRA.REPUL.0>
0

>  <SCORE.INTRA.VDW>
-287.851

>  <SCORE.INTRA.VDW.0>
284.832

>  <SCORE.INTRA.norm>
-10.0178

>  <SCORE.RESTR>
0.0141821

>  <SCORE.RESTR.CAVITY>
0.0141821

>  <SCORE.RESTR.norm>
0.000489036

>  <SCORE.SYSTEM>
-6.31582

>  <SCORE.SYSTEM.CONST>
0

>  <SCORE.SYSTEM.DIHEDRAL>
10.0201

>  <SCORE.SYSTEM.POLAR>
-4.38571

>  <SCORE.SYSTEM.VDW>
3.58556

>  <SCORE.SYSTEM.norm>
-0.217787

>  <SCORE.heavy>
29

>  <SCORE.norm>
-10.5185

$$$$
F3398-2641
  rDOCK(R)          3D
libRbt.so/2013.1/901 2013/11/27
 29 32  0  0  0  0  0  0  0  0999 V2000
  -19.2564   16.8184  -15.7310 C   0  0  0  0  0  0
  -19.2152   18.2016  -15.2481 N   0  0  0  0  0  0
  -18.5350   19.2418  -16.0893 C   0  0  0  0  0  0
  -17.0183   19.1356  -16.2399 C   0  0  0  0  0  0
  -15.7848   20.4210  -16.3108 C   0  0  0  0  0  0
  -14.3011   20.2740  -17.3727 C   0  0  0  0  0  0
  -13.9673   18.9182  -18.4671 C   0  0  0  0  0  0
  -15.0919   17.6078  -18.4160 C   0  0  0  0  0  0
  -16.6822   17.6647  -17.1529 C   0  0  0  0  0  0
  -19.4692   18.3476  -13.8896 C   0  0  0  0  0  0
  -19.4019   17.3962  -13.1088 O   0  0  0  0  0  0
  -19.8095   19.6572  -13.3841 C   0  0  0  0  0  0
  -20.6200   20.0809  -12.2872 C   0  0  0  0  0  0
  -20.4425   21.5762  -12.4521 N   0  0  0  0  0  0
  -19.8006   21.8136  -13.6345 N   0  0  0  0  0  0
  -19.3493   20.7011  -14.1375 N   0  0  0  0  0  0
  -20.8842   22.8076  -11.7885 C   0  0  0  0  0  0
  -20.1829   24.0033  -11.8902 C   0  0  0  0  0  0
  -20.3346   25.0232  -10.9362 C   0  0  0  0  0  0
  -21.4670   25.0522  -10.1469 C   0  0  0  0  0  0
  -21.8199   26.4742   -9.2482 Cl  0  0  0  0  0  0
  -22.3529   23.9830  -10.1997 C   0  0  0  0  0  0
  -22.0203   22.8264  -10.9396 C   0  0  0  0  0  0
  -21.9103   19.1047  -11.6155 C   0  0  0  0  0  0
  -22.2811   17.5643  -12.5056 C   0  0  0  0  0  0
  -23.7269   16.6192  -12.0891 N   0  0  0  0  0  0
  -24.8482   17.1297  -10.8153 C   0  0  0  0  0  0
  -24.7242   18.5538   -9.8857 C   0  0  0  0  0  0
  -23.3805   19.5786  -10.2609 C   0  0  0  0  0  0
  1  2  1  0  0  0
  2  3  1  0  0  0
  2 10  1  0  0  0
  3  4  1  0  0  0
  4  5  2  0  0  0
  4  9  1  0  0  0
  5  6  1  0  0  0
  6  7  2  0  0  0
  7  8  1  0  0  0
  8  9  2  0  0  0
 10 11  2  0  0  0
 10 12  1  0  0  0
 12 13  2  0  0  0
 12 16  1  0  0  0
 13 14  1  0  0  0
 13 24  1  0  0  0
 14 15  1  0  0  0
 14 17  1  0  0  0
 15 16  2  0  0  0
 17 18  2  0  0  0
 17 23  1  0  0  0
 18 19  1  0  0  0
 19 20  2  0  0  0
 20 21  1  0  0  0
 20 22  1  0  0  0
 22 23  2  0  0  0
 24 25  2  0  0  0
 24 29  1  0  0  0
 25 26  1  0  0  0
 26 27  2  0  0  0
 27 28  1  0  0  0
 28 29  2  0  0  0
M  END
>  <CHROM.0>
-179.37135173,66.08759629,111.74938264,64.60658934,169.00224919,60.67738747
-36.40358706,-161.37936715

>  <CHROM.1>
-68.10807329,-142.63066882,150.04454080,-5.89840023,156.45616826,-20.04996396
20.52150985,-13.12207861,0.77803722,-0.65389180,-2.77309283

>  <Name>
F3398-2641

>  <RI>
1.8803e+07

>  <Rbt.Current_Directory>
/home/adria/Escritorio/rDock_CMTR_LC/2pxcA_model/inputs_sah

>  <Rbt.Executable>
rbdock ($Id: //depot/dev/client3/rdock/2013.1/src/exe/rbdock.cxx#4 $)

>  <Rbt.Library>
libRbt.so (2013.1, Build901 2013/11/27)

>  <Rbt.Parameter_File>
/home/adria/Escritorio/rDock_2013.1_src/data/scripts/dock.prm

>  <Rbt.Receptor>
sah_rdock.prm

>  <SCORE>
-311.128

>  <SCORE.INTER>
-20.6976

>  <SCORE.INTER.CONST>
1

>  <SCORE.INTER.POLAR>
-0.824621

>  <SCORE.INTER.REPUL>
0

>  <SCORE.INTER.ROT>
5

>  <SCORE.INTER.VDW>
-28.2938

>  <SCORE.INTER.norm>
-0.713709

>  <SCORE.INTRA>
-288.76

>  <SCORE.INTRA.DIHEDRAL>
-8.67119

>  <SCORE.INTRA.DIHEDRAL.0>
17.2324

>  <SCORE.INTRA.POLAR>
0

>  <SCORE.INTRA.POLAR.0>
0

>  <SCORE.INTRA.REPUL>
0

>  <SCORE.INTRA.REPUL.0>
0

>  <SCORE.INTRA.VDW>
-284.424

>  <SCORE.INTRA.VDW.0>
284.832

>  <SCORE.INTRA.norm>
-9.95722

>  <SCORE.RESTR>
0

>  <SCORE.RESTR.CAVITY>
0

>  <SCORE.RESTR.norm>
0

>  <SCORE.SYSTEM>
-1.67139

>  <SCORE.SYSTEM.CONST>
0

>  <SCORE.SYSTEM.DIHEDRAL>
6.00115

>  <SCORE.SYSTEM.POLAR>
-4.19555

>  <SCORE.SYSTEM.VDW>
9.5929

>  <SCORE.SYSTEM.norm>
-0.057634

>  <SCORE.heavy>
29

>  <SCORE.norm>
-10.7286

$$$$
F3398-2641
  rDOCK(R)          3D
libRbt.so/2013.1/901 2013/11/27
 29 32  0  0  0  0  0  0  0  0999 V2000
  -19.8373   21.1424  -14.2492 C   0  0  0  0  0  0
  -19.9506   19.7654  -14.7384 N   0  0  0  0  0  0
  -21.2797   19.2836  -15.2421 C   0  0  0  0  0  0
  -22.3584   18.9942  -14.1996 C   0  0  0  0  0  0
  -22.2911   19.1171  -12.4221 C   0  0  0  0  0  0
  -23.1783   17.9359  -11.3412 C   0  0  0  0  0  0
  -24.1141   16.5421  -11.9146 C   0  0  0  0  0  0
  -24.2690   16.3858  -13.6281 C   0  0  0  0  0  0
  -23.4153   17.7505  -14.8676 C   0  0  0  0  0  0
  -18.9220   18.9222  -14.3357 C   0  0  0  0  0  0
  -18.1770   19.2068  -13.3959 O   0  0  0  0  0  0
  -18.7344   17.6729  -15.0362 C   0  0  0  0  0  0
  -17.5974   17.0951  -15.6788 C   0  0  0  0  0  0
  -18.2423   15.8042  -16.1395 N   0  0  0  0  0  0
  -19.5889   15.8858  -15.9242 N   0  0  0  0  0  0
  -19.8706   16.9306  -15.2008 N   0  0  0  0  0  0
  -17.8556   14.5890  -16.8646 C   0  0  0  0  0  0
  -18.7074   13.4995  -17.0031 C   0  0  0  0  0  0
  -18.2121   12.2154  -17.2847 C   0  0  0  0  0  0
  -16.9599   12.0792  -17.8503 C   0  0  0  0  0  0
  -16.5078   10.5611  -18.5173 Cl  0  0  0  0  0  0
  -16.1523   13.2027  -17.9780 C   0  0  0  0  0  0
  -16.5537   14.4298  -17.4045 C   0  0  0  0  0  0
  -16.2624   18.0441  -16.3002 C   0  0  0  0  0  0
  -16.1280   19.7371  -15.6536 C   0  0  0  0  0  0
  -14.9878   20.8848  -16.3884 N   0  0  0  0  0  0
  -13.9558   20.4373  -17.7578 C   0  0  0  0  0  0
  -13.9451   18.9276  -18.5504 C   0  0  0  0  0  0
  -15.0704   17.7578  -17.9489 C   0  0  0  0  0  0
  1  2  1  0  0  0
  2  3  1  0  0  0
  2 10  1  0  0  0
  3  4  1  0  0  0
  4  5  2  0  0  0
  4  9  1  0  0  0
  5  6  1  0  0  0
  6  7  2  0  0  0
  7  8  1  0  0  0
  8  9  2  0  0  0
 10 11  2  0  0  0
 10 12  1  0  0  0
 12 13  2  0  0  0
 12 16  1  0  0  0
 13 14  1  0  0  0
 13 24  1  0  0  0
 14 15  1  0  0  0
 14 17  1  0  0  0
 15 16  2  0  0  0
 17 18  2  0  0  0
 17 23  1  0  0  0
 18 19  1  0  0  0
 19 20  2  0  0  0
 20 21  1  0  0  0
 20 22  1  0  0  0
 22 23  2  0  0  0
 24 25  2  0  0  0
 24 29  1  0  0  0
 25 26  1  0  0  0
 26 27  2  0  0  0
 27 28  1  0  0  0
 28 29  2  0  0  0
M  END
>  <CHROM.0>
-65.17911438,-170.25798215,73.87297028,63.64561621,-29.66302647,55.30877696
82.55652629,-50.51884644

>  <CHROM.1>
-73.94150823,-0.95756418,125.98461375,18.20435338,173.21536454,-18.61647804
16.75747254,-15.78206993,-2.32550408,-0.48385956,-2.86735161

>  <Name>
F3398-2641

>  <RI>
1.8803e+07

>  <Rbt.Current_Directory>
/home/adria/Escritorio/rDock_CMTR_LC/2pxcA_model/inputs_sah

>  <Rbt.Executable>
rbdock ($Id: //depot/dev/client3/rdock/2013.1/src/exe/rbdock.cxx#4 $)

>  <Rbt.Library>
libRbt.so (2013.1, Build901 2013/11/27)

>  <Rbt.Parameter_File>
/home/adria/Escritorio/rDock_2013.1_src/data/scripts/dock.prm

>  <Rbt.Receptor>
sah_rdock.prm

>  <SCORE>
-304.137

>  <SCORE.INTER>
-9.83622

>  <SCORE.INTER.CONST>
1

>  <SCORE.INTER.POLAR>
0

>  <SCORE.INTER.REPUL>
0

>  <SCORE.INTER.ROT>
5

>  <SCORE.INTER.VDW>
-20.2362

>  <SCORE.INTER.norm>
-0.33918

>  <SCORE.INTRA>
-290.657

>  <SCORE.INTRA.DIHEDRAL>
-7.18942

>  <SCORE.INTRA.DIHEDRAL.0>
17.2324

>  <SCORE.INTRA.POLAR>
0

>  <SCORE.INTRA.POLAR.0>
0

>  <SCORE.INTRA.REPUL>
0

>  <SCORE.INTRA.REPUL.0>
0

>  <SCORE.INTRA.VDW>
-287.062

>  <SCORE.INTRA.VDW.0>
284.832

>  <SCORE.INTRA.norm>
-10.0227

>  <SCORE.RESTR>
0.606729

>  <SCORE.RESTR.CAVITY>
0.606729

>  <SCORE.RESTR.norm>
0.0209217

>  <SCORE.SYSTEM>
-4.25002

>  <SCORE.SYSTEM.CONST>
0

>  <SCORE.SYSTEM.DIHEDRAL>
8.80035

>  <SCORE.SYSTEM.POLAR>
-3.3781

>  <SCORE.SYSTEM.REPUL>
0.0104347

>  <SCORE.SYSTEM.VDW>
2.78317

>  <SCORE.SYSTEM.norm>
-0.146552

>  <SCORE.heavy>
29

>  <SCORE.norm>
-10.4875

$$$$
F3398-2641
  rDOCK(R)          3D
libRbt.so/2013.1/901 2013/11/27
 29 32  0  0  0  0  0  0  0  0999 V2000
  -19.5714   16.9416  -15.7876 C   0  0  0  0  0  0
  -19.5661   18.3459  -15.3681 N   0  0  0  0  0  0
  -19.2487   19.4036  -16.3844 C   0  0  0  0  0  0
  -17.9188   19.2822  -17.1265 C   0  0  0  0  0  0
  -17.2243   17.8957  -18.0064 C   0  0  0  0  0  0
  -15.4264   17.5521  -17.9968 C   0  0  0  0  0  0
  -14.2208   18.4824  -17.0866 C   0  0  0  0  0  0
  -14.8104   19.8740  -16.2500 C   0  0  0  0  0  0
  -16.7773   20.3741  -16.3424 C   0  0  0  0  0  0
  -19.4773   18.5388  -13.9947 C   0  0  0  0  0  0
  -19.1032   17.6436  -13.2344 O   0  0  0  0  0  0
  -19.8240   19.8317  -13.4516 C   0  0  0  0  0  0
  -20.5993   20.2183  -12.3163 C   0  0  0  0  0  0
  -20.4585   21.7198  -12.4597 N   0  0  0  0  0  0
  -19.8682   21.9919  -13.6613 N   0  0  0  0  0  0
  -19.4146   20.8984  -14.2023 N   0  0  0  0  0  0
  -20.8986   22.9295  -11.7562 C   0  0  0  0  0  0
  -20.1931   24.1255  -11.8149 C   0  0  0  0  0  0
  -20.3449   25.1131  -10.8275 C   0  0  0  0  0  0
  -21.4800   25.1191  -10.0415 C   0  0  0  0  0  0
  -21.8315   26.5110   -9.0964 Cl  0  0  0  0  0  0
  -22.3691   24.0552  -10.1335 C   0  0  0  0  0  0
  -22.0376   22.9232  -10.9110 C   0  0  0  0  0  0
  -21.8424   19.2034  -11.6138 C   0  0  0  0  0  0
  -22.1642   17.6366  -12.4764 C   0  0  0  0  0  0
  -23.5671   16.6428  -12.0275 N   0  0  0  0  0  0
  -24.6916   17.1290  -10.7470 C   0  0  0  0  0  0
  -24.6115   18.5708   -9.8401 C   0  0  0  0  0  0
  -23.3132   19.6408  -10.2476 C   0  0  0  0  0  0
  1  2  1  0  0  0
  2  3  1  0  0  0
  2 10  1  0  0  0
  3  4  1  0  0  0
  4  5  2  0  0  0
  4  9  1  0  0  0
  5  6  1  0  0  0
  6  7  2  0  0  0
  7  8  1  0  0  0
  8  9  2  0  0  0
 10 11  2  0  0  0
 10 12  1  0  0  0
 12 13  2  0  0  0
 12 16  1  0  0  0
 13 14  1  0  0  0
 13 24  1  0  0  0
 14 15  1  0  0  0
 14 17  1  0  0  0
 15 16  2  0  0  0
 17 18  2  0  0  0
 17 23  1  0  0  0
 18 19  1  0  0  0
 19 20  2  0  0  0
 20 21  1  0  0  0
 20 22  1  0  0  0
 22 23  2  0  0  0
 24 25  2  0  0  0
 24 29  1  0  0  0
 25 26  1  0  0  0
 26 27  2  0  0  0
 27 28  1  0  0  0
 28 29  2  0  0  0
M  END
>  <CHROM.0>
-172.35212566,-168.34004786,72.45336828,61.92856285,167.94461551,58.64470153
-36.37476138,-160.39177304

>  <CHROM.1>
-56.29244822,51.60307867,135.79754538,-3.24300216,153.53772448,-20.18503428
20.59078334,-13.08005871,0.88405727,-0.66563187,-2.74793362

>  <Name>
F3398-2641

>  <RI>
1.8803e+07

>  <Rbt.Current_Directory>
/home/adria/Escritorio/rDock_CMTR_LC/2pxcA_model/inputs_sah

>  <Rbt.Executable>
rbdock ($Id: //depot/dev/client3/rdock/2013.1/src/exe/rbdock.cxx#4 $)

>  <Rbt.Library>
libRbt.so (2013.1, Build901 2013/11/27)

>  <Rbt.Parameter_File>
/home/adria/Escritorio/rDock_2013.1_src/data/scripts/dock.prm

>  <Rbt.Receptor>
sah_rdock.prm

>  <SCORE>
-310.706

>  <SCORE.INTER>
-20.5223

>  <SCORE.INTER.CONST>
1

>  <SCORE.INTER.POLAR>
-0.824621

>  <SCORE.INTER.REPUL>
0

>  <SCORE.INTER.ROT>
5

>  <SCORE.INTER.VDW>
-28.1186

>  <SCORE.INTER.norm>
-0.707666

>  <SCORE.INTRA>
-288.998

>  <SCORE.INTRA.DIHEDRAL>
-5.48939

>  <SCORE.INTRA.DIHEDRAL.0>
17.2324

>  <SCORE.INTRA.POLAR>
0

>  <SCORE.INTRA.POLAR.0>
0

>  <SCORE.INTRA.REPUL>
0

>  <SCORE.INTRA.REPUL.0>
0

>  <SCORE.INTRA.VDW>
-286.253

>  <SCORE.INTRA.VDW.0>
284.832

>  <SCORE.INTRA.norm>
-9.96544

>  <SCORE.RESTR>
0

>  <SCORE.RESTR.CAVITY>
0

>  <SCORE.RESTR.norm>
0

>  <SCORE.SYSTEM>
-1.18614

>  <SCORE.SYSTEM.CONST>
0

>  <SCORE.SYSTEM.DIHEDRAL>
3.77202

>  <SCORE.SYSTEM.POLAR>
-3.66446

>  <SCORE.SYSTEM.VDW>
9.387

>  <SCORE.SYSTEM.norm>
-0.0409015

>  <SCORE.heavy>
29

>  <SCORE.norm>
-10.714

$$$$
F3398-2641
  rDOCK(R)          3D
libRbt.so/2013.1/901 2013/11/27
 29 32  0  0  0  0  0  0  0  0999 V2000
  -19.3020   18.7377  -17.0176 C   0  0  0  0  0  0
  -19.1480   19.7682  -15.9868 N   0  0  0  0  0  0
  -17.8834   20.5759  -15.9542 C   0  0  0  0  0  0
  -16.5642   19.8062  -15.9148 C   0  0  0  0  0  0
  -15.0915   20.0128  -16.8984 C   0  0  0  0  0  0
  -14.0709   18.5840  -17.4155 C   0  0  0  0  0  0
  -14.4539   16.8863  -17.0713 C   0  0  0  0  0  0
  -15.8392   16.6080  -16.0775 C   0  0  0  0  0  0
  -16.9262   18.1698  -15.3658 C   0  0  0  0  0  0
  -20.0148   19.6412  -14.9081 C   0  0  0  0  0  0
  -20.6154   18.5902  -14.6758 O   0  0  0  0  0  0
  -20.2030   20.7741  -14.0319 C   0  0  0  0  0  0
  -20.8405   20.9080  -12.7610 C   0  0  0  0  0  0
  -20.5877   22.3862  -12.5471 N   0  0  0  0  0  0
  -20.0846   22.9164  -13.7013 N   0  0  0  0  0  0
  -19.7734   21.9692  -14.5381 N   0  0  0  0  0  0
  -20.8616   23.4040  -11.5267 C   0  0  0  0  0  0
  -22.0085   23.3846  -10.7420 C   0  0  0  0  0  0
  -22.4828   24.5470  -10.1116 C   0  0  0  0  0  0
  -21.6194   25.6022   -9.8939 C   0  0  0  0  0  0
  -22.0929   26.8581   -8.8203 Cl  0  0  0  0  0  0
  -20.3456   25.5560  -10.4471 C   0  0  0  0  0  0
  -19.9990   24.5136  -11.3355 C   0  0  0  0  0  0
  -22.0976   19.8244  -12.2002 C   0  0  0  0  0  0
  -22.6013   20.0285  -10.4661 C   0  0  0  0  0  0
  -23.6692   18.8325   -9.7006 N   0  0  0  0  0  0
  -24.2743   17.4162  -10.5772 C   0  0  0  0  0  0
  -23.8988   17.0014  -12.1879 C   0  0  0  0  0  0
  -22.8102   18.0724  -13.0028 C   0  0  0  0  0  0
  1  2  1  0  0  0
  2  3  1  0  0  0
  2 10  1  0  0  0
  3  4  1  0  0  0
  4  5  2  0  0  0
  4  9  1  0  0  0
  5  6  1  0  0  0
  6  7  2  0  0  0
  7  8  1  0  0  0
  8  9  2  0  0  0
 10 11  2  0  0  0
 10 12  1  0  0  0
 12 13  2  0  0  0
 12 16  1  0  0  0
 13 14  1  0  0  0
 13 24  1  0  0  0
 14 15  1  0  0  0
 14 17  1  0  0  0
 15 16  2  0  0  0
 17 18  2  0  0  0
 17 23  1  0  0  0
 18 19  1  0  0  0
 19 20  2  0  0  0
 20 21  1  0  0  0
 20 22  1  0  0  0
 22 23  2  0  0  0
 24 25  2  0  0  0
 24 29  1  0  0  0
 25 26  1  0  0  0
 26 27  2  0  0  0
 27 28  1  0  0  0
 28 29  2  0  0  0
M  END
>  <CHROM.0>
-60.65193445,-75.61186851,-165.44283998,59.43794291,-30.84868679,-61.81361039
74.36073351,-159.00327677

>  <CHROM.1>
-53.30001229,131.61821758,-169.04977598,171.52142982,-33.25776162,-20.11968572
21.04421870,-13.09679952,0.88853552,-0.60607506,-2.75650083

>  <Name>
F3398-2641

>  <RI>
1.8803e+07

>  <Rbt.Current_Directory>
/home/adria/Escritorio/rDock_CMTR_LC/2pxcA_model/inputs_sah

>  <Rbt.Executable>
rbdock ($Id: //depot/dev/client3/rdock/2013.1/src/exe/rbdock.cxx#4 $)

>  <Rbt.Library>
libRbt.so (2013.1, Build901 2013/11/27)

>  <Rbt.Parameter_File>
/home/adria/Escritorio/rDock_2013.1_src/data/scripts/dock.prm

>  <Rbt.Receptor>
sah_rdock.prm

>  <SCORE>
-313.296

>  <SCORE.INTER>
-17.1492

>  <SCORE.INTER.CONST>
1

>  <SCORE.INTER.POLAR>
-0.346182

>  <SCORE.INTER.REPUL>
0

>  <SCORE.INTER.ROT>
5

>  <SCORE.INTER.VDW>
-26.3722

>  <SCORE.INTER.norm>
-0.591353

>  <SCORE.INTRA>
-289.122

>  <SCORE.INTRA.DIHEDRAL>
-8.72522

>  <SCORE.INTRA.DIHEDRAL.0>
17.2324

>  <SCORE.INTRA.POLAR>
0

>  <SCORE.INTRA.POLAR.0>
0

>  <SCORE.INTRA.REPUL>
0

>  <SCORE.INTRA.REPUL.0>
0

>  <SCORE.INTRA.VDW>
-284.759

>  <SCORE.INTRA.VDW.0>
284.832

>  <SCORE.INTRA.norm>
-9.96971

>  <SCORE.RESTR>
0

>  <SCORE.RESTR.CAVITY>
0

>  <SCORE.RESTR.norm>
0

>  <SCORE.SYSTEM>
-7.02479

>  <SCORE.SYSTEM.CONST>
0

>  <SCORE.SYSTEM.DIHEDRAL>
6.18908

>  <SCORE.SYSTEM.POLAR>
-3.7518

>  <SCORE.SYSTEM.REPUL>
0.0428624

>  <SCORE.SYSTEM.VDW>
2.42248

>  <SCORE.SYSTEM.norm>
-0.242234

>  <SCORE.heavy>
29

>  <SCORE.norm>
-10.8033

$$$$
F3398-2641
  rDOCK(R)          3D
libRbt.so/2013.1/901 2013/11/27
 29 32  0  0  0  0  0  0  0  0999 V2000
  -24.0666   19.0348   -9.7304 C   0  0  0  0  0  0
  -22.9547   19.0938  -10.6834 N   0  0  0  0  0  0
  -21.8070   20.0184  -10.4000 C   0  0  0  0  0  0
  -21.8225   21.3821  -11.0887 C   0  0  0  0  0  0
  -20.5079   22.2605  -11.9127 C   0  0  0  0  0  0
  -20.3674   24.0836  -11.8282 C   0  0  0  0  0  0
  -21.4413   25.1414  -10.8927 C   0  0  0  0  0  0
  -22.7720   24.3683  -10.1080 C   0  0  0  0  0  0
  -23.0478   22.3633  -10.2850 C   0  0  0  0  0  0
  -23.2439   18.5799  -11.9418 C   0  0  0  0  0  0
  -24.4030   18.4041  -12.3226 O   0  0  0  0  0  0
  -22.1496   18.2560  -12.8274 C   0  0  0  0  0  0
  -21.8839   18.5978  -14.1883 C   0  0  0  0  0  0
  -20.5601   17.8768  -14.3377 N   0  0  0  0  0  0
  -20.3550   17.1030  -13.2306 N   0  0  0  0  0  0
  -21.2294   17.3877  -12.3094 N   0  0  0  0  0  0
  -19.5401   17.6706  -15.3716 C   0  0  0  0  0  0
  -18.6316   16.6197  -15.3250 C   0  0  0  0  0  0
  -17.4171   16.6714  -16.0290 C   0  0  0  0  0  0
  -17.2884   17.5343  -17.0991 C   0  0  0  0  0  0
  -15.9553   17.3438  -18.1672 Cl  0  0  0  0  0  0
  -18.3041   18.4476  -17.3544 C   0  0  0  0  0  0
  -19.3768   18.5831  -16.4451 C   0  0  0  0  0  0
  -23.1401   19.0244  -15.3323 C   0  0  0  0  0  0
  -22.5981   19.2549  -17.0515 C   0  0  0  0  0  0
  -23.7126   19.9399  -18.2540 N   0  0  0  0  0  0
  -25.3662   20.4207  -17.8357 C   0  0  0  0  0  0
  -26.0701   20.3365  -16.2849 C   0  0  0  0  0  0
  -25.0411   19.7413  -15.0266 C   0  0  0  0  0  0
  1  2  1  0  0  0
  2  3  1  0  0  0
  2 10  1  0  0  0
  3  4  1  0  0  0
  4  5  2  0  0  0
  4  9  1  0  0  0
  5  6  1  0  0  0
  6  7  2  0  0  0
  7  8  1  0  0  0
  8  9  2  0  0  0
 10 11  2  0  0  0
 10 12  1  0  0  0
 12 13  2  0  0  0
 12 16  1  0  0  0
 13 14  1  0  0  0
 13 24  1  0  0  0
 14 15  1  0  0  0
 14 17  1  0  0  0
 15 16  2  0  0  0
 17 18  2  0  0  0
 17 23  1  0  0  0
 18 19  1  0  0  0
 19 20  2  0  0  0
 20 21  1  0  0  0
 20 22  1  0  0  0
 22 23  2  0  0  0
 24 25  2  0  0  0
 24 29  1  0  0  0
 25 26  1  0  0  0
 26 27  2  0  0  0
 27 28  1  0  0  0
 28 29  2  0  0  0
M  END
>  <CHROM.0>
-62.94189402,-71.94835466,111.67223834,58.44919402,168.68655070,-175.65240331
-158.01509957,-163.61266969

>  <CHROM.1>
-97.44767236,-135.52419013,-129.46659755,-173.86701723,-159.57396887,-21.28388180
19.37109581,-14.11095008,-2.21734192,0.18261321,-2.02868653

>  <Name>
F3398-2641

>  <RI>
1.8803e+07

>  <Rbt.Current_Directory>
/home/adria/Escritorio/rDock_CMTR_LC/2pxcA_model/inputs_sah

>  <Rbt.Executable>
rbdock ($Id: //depot/dev/client3/rdock/2013.1/src/exe/rbdock.cxx#4 $)

>  <Rbt.Library>
libRbt.so (2013.1, Build901 2013/11/27)

>  <Rbt.Parameter_File>
/home/adria/Escritorio/rDock_2013.1_src/data/scripts/dock.prm

>  <Rbt.Receptor>
sah_rdock.prm

>  <SCORE>
-306.577

>  <SCORE.INTER>
-13.2821

>  <SCORE.INTER.CONST>
1

>  <SCORE.INTER.POLAR>
-1.15256

>  <SCORE.INTER.REPUL>
0.010916

>  <SCORE.INTER.ROT>
5

>  <SCORE.INTER.VDW>
-19.8179

>  <SCORE.INTER.norm>
-0.458002

>  <SCORE.INTRA>
-290.709

>  <SCORE.INTRA.DIHEDRAL>
-5.87049

>  <SCORE.INTRA.DIHEDRAL.0>
17.2324

>  <SCORE.INTRA.POLAR>
0

>  <SCORE.INTRA.POLAR.0>
0

>  <SCORE.INTRA.REPUL>
0

>  <SCORE.INTRA.REPUL.0>
0

>  <SCORE.INTRA.VDW>
-287.774

>  <SCORE.INTRA.VDW.0>
284.832

>  <SCORE.INTRA.norm>
-10.0245

>  <SCORE.RESTR>
0

>  <SCORE.RESTR.CAVITY>
0

>  <SCORE.RESTR.norm>
0

>  <SCORE.SYSTEM>
-2.58579

>  <SCORE.SYSTEM.CONST>
0

>  <SCORE.SYSTEM.DIHEDRAL>
6.27668

>  <SCORE.SYSTEM.POLAR>
-4.53663

>  <SCORE.SYSTEM.REPUL>
0.0366037

>  <SCORE.SYSTEM.VDW>
9.5174

>  <SCORE.SYSTEM.norm>
-0.0891652

>  <SCORE.heavy>
29

>  <SCORE.norm>
-10.5716

$$$$
F3398-2641
  rDOCK(R)          3D
libRbt.so/2013.1/901 2013/11/27
 29 32  0  0  0  0  0  0  0  0999 V2000
  -22.1326   21.7665  -11.1114 C   0  0  0  0  0  0
  -21.2555   21.4546  -12.2434 N   0  0  0  0  0  0
  -20.6407   22.5852  -13.0155 C   0  0  0  0  0  0
  -20.4433   23.9085  -12.2777 C   0  0  0  0  0  0
  -19.5352   24.2588  -10.7839 C   0  0  0  0  0  0
  -20.1154   25.5042   -9.5743 C   0  0  0  0  0  0
  -21.6284   26.4207   -9.7086 C   0  0  0  0  0  0
  -22.5385   26.1739  -11.1561 C   0  0  0  0  0  0
  -21.8659   24.9026  -12.5909 C   0  0  0  0  0  0
  -21.3804   20.1596  -12.7320 C   0  0  0  0  0  0
  -22.3568   19.4554  -12.4675 O   0  0  0  0  0  0
  -20.3375   19.6354  -13.5831 C   0  0  0  0  0  0
  -20.3653   19.0573  -14.8887 C   0  0  0  0  0  0
  -18.8814   18.7923  -15.0393 N   0  0  0  0  0  0
  -18.2714   19.0202  -13.8383 N   0  0  0  0  0  0
  -19.0957   19.5972  -13.0125 N   0  0  0  0  0  0
  -17.9685   18.2353  -16.0434 C   0  0  0  0  0  0
  -18.4198   17.6616  -17.2261 C   0  0  0  0  0  0
  -17.6250   16.7573  -17.9499 C   0  0  0  0  0  0
  -16.2577   16.7503  -17.7582 C   0  0  0  0  0  0
  -15.2631   15.9135  -18.8828 Cl  0  0  0  0  0  0
  -15.7162   17.5226  -16.7378 C   0  0  0  0  0  0
  -16.5678   18.1849  -15.8257 C   0  0  0  0  0  0
  -21.7847   18.2848  -15.5649 C   0  0  0  0  0  0
  -22.8324   17.3843  -14.3843 C   0  0  0  0  0  0
  -24.1478   16.3443  -14.9716 N   0  0  0  0  0  0
  -24.4855   16.1423  -16.6995 C   0  0  0  0  0  0
  -23.6092   16.8509  -17.9793 C   0  0  0  0  0  0
  -22.2634   17.8338  -17.5114 C   0  0  0  0  0  0
  1  2  1  0  0  0
  2  3  1  0  0  0
  2 10  1  0  0  0
  3  4  1  0  0  0
  4  5  2  0  0  0
  4  9  1  0  0  0
  5  6  1  0  0  0
  6  7  2  0  0  0
  7  8  1  0  0  0
  8  9  2  0  0  0
 10 11  2  0  0  0
 10 12  1  0  0  0
 12 13  2  0  0  0
 12 16  1  0  0  0
 13 14  1  0  0  0
 13 24  1  0  0  0
 14 15  1  0  0  0
 14 17  1  0  0  0
 15 16  2  0  0  0
 17 18  2  0  0  0
 17 23  1  0  0  0
 18 19  1  0  0  0
 19 20  2  0  0  0
 20 21  1  0  0  0
 20 22  1  0  0  0
 22 23  2  0  0  0
 24 25  2  0  0  0
 24 29  1  0  0  0
 25 26  1  0  0  0
 26 27  2  0  0  0
 27 28  1  0  0  0
 28 29  2  0  0  0
M  END
>  <CHROM.0>
-60.10594123,-72.28328643,-162.98982911,-59.63152583,168.65719667,-179.13168293
-156.99653428,-51.77216219

>  <CHROM.1>
26.01307449,57.48702850,-125.54542418,-34.64690493,-5.49270751,-20.02517023
19.67150786,-14.53686346,1.93130807,0.16628073,0.65355573

>  <Name>
F3398-2641

>  <RI>
1.8803e+07

>  <Rbt.Current_Directory>
/home/adria/Escritorio/rDock_CMTR_LC/2pxcA_model/inputs_sah

>  <Rbt.Executable>
rbdock ($Id: //depot/dev/client3/rdock/2013.1/src/exe/rbdock.cxx#4 $)

>  <Rbt.Library>
libRbt.so (2013.1, Build901 2013/11/27)

>  <Rbt.Parameter_File>
/home/adria/Escritorio/rDock_2013.1_src/data/scripts/dock.prm

>  <Rbt.Receptor>
sah_rdock.prm

>  <SCORE>
-302.306

>  <SCORE.INTER>
-14.7909

>  <SCORE.INTER.CONST>
1

>  <SCORE.INTER.POLAR>
0

>  <SCORE.INTER.REPUL>
0

>  <SCORE.INTER.ROT>
5

>  <SCORE.INTER.VDW>
-25.1909

>  <SCORE.INTER.norm>
-0.510031

>  <SCORE.INTRA>
-287.159

>  <SCORE.INTRA.DIHEDRAL>
-1.10792

>  <SCORE.INTRA.DIHEDRAL.0>
17.2324

>  <SCORE.INTRA.POLAR>
0

>  <SCORE.INTRA.POLAR.0>
0

>  <SCORE.INTRA.REPUL>
0

>  <SCORE.INTRA.REPUL.0>
0

>  <SCORE.INTRA.VDW>
-286.605

>  <SCORE.INTRA.VDW.0>
284.832

>  <SCORE.INTRA.norm>
-9.90203

>  <SCORE.RESTR>
0

>  <SCORE.RESTR.CAVITY>
0

>  <SCORE.RESTR.norm>
0

>  <SCORE.SYSTEM>
-0.355939

>  <SCORE.SYSTEM.CONST>
0

>  <SCORE.SYSTEM.DIHEDRAL>
6.1216

>  <SCORE.SYSTEM.POLAR>
-3.57559

>  <SCORE.SYSTEM.REPUL>
0.0444591

>  <SCORE.SYSTEM.VDW>
8.51796

>  <SCORE.SYSTEM.norm>
-0.0122737

>  <SCORE.heavy>
29

>  <SCORE.norm>
-10.4243

$$$$
F3398-2641
  rDOCK(R)          3D
libRbt.so/2013.1/901 2013/11/27
 29 32  0  0  0  0  0  0  0  0999 V2000
  -20.0932   17.3720  -15.9650 C   0  0  0  0  0  0
  -19.9289   18.7030  -15.3737 N   0  0  0  0  0  0
  -19.4221   19.8209  -16.2372 C   0  0  0  0  0  0
  -18.1270   19.5746  -17.0095 C   0  0  0  0  0  0
  -17.5605   18.1087  -17.8514 C   0  0  0  0  0  0
  -15.7923   17.6356  -17.8765 C   0  0  0  0  0  0
  -14.4964   18.5096  -17.0374 C   0  0  0  0  0  0
  -14.9594   19.9714  -16.2417 C   0  0  0  0  0  0
  -16.8873   20.6096  -16.3010 C   0  0  0  0  0  0
  -19.8910   18.7178  -13.9846 C   0  0  0  0  0  0
  -19.6781   17.6966  -13.3282 O   0  0  0  0  0  0
  -20.0963   19.9722  -13.2982 C   0  0  0  0  0  0
  -20.8702   20.3215  -12.1499 C   0  0  0  0  0  0
  -20.5328   21.7975  -12.1027 N   0  0  0  0  0  0
  -19.8553   22.1289  -13.2418 N   0  0  0  0  0  0
  -19.5188   21.0564  -13.8982 N   0  0  0  0  0  0
  -20.8490   22.9634  -11.2705 C   0  0  0  0  0  0
  -22.0895   23.1361  -10.6679 C   0  0  0  0  0  0
  -22.5368   24.4057  -10.2661 C   0  0  0  0  0  0
  -21.6180   25.4151  -10.0577 C   0  0  0  0  0  0
  -22.1166   26.8381   -9.2328 Cl  0  0  0  0  0  0
  -20.2901   25.2003  -10.4062 C   0  0  0  0  0  0
  -19.9225   24.0229  -11.0951 C   0  0  0  0  0  0
  -22.2647   19.4040  -11.6185 C   0  0  0  0  0  0
  -23.0597   19.9876  -10.0921 C   0  0  0  0  0  0
  -24.3114   19.0021   -9.3051 N   0  0  0  0  0  0
  -24.8256   17.4380   -9.9605 C   0  0  0  0  0  0
  -24.1901   16.6775  -11.3481 C   0  0  0  0  0  0
  -22.9161   17.5299  -12.1522 C   0  0  0  0  0  0
  1  2  1  0  0  0
  2  3  1  0  0  0
  2 10  1  0  0  0
  3  4  1  0  0  0
  4  5  2  0  0  0
  4  9  1  0  0  0
  5  6  1  0  0  0
  6  7  2  0  0  0
  7  8  1  0  0  0
  8  9  2  0  0  0
 10 11  2  0  0  0
 10 12  1  0  0  0
 12 13  2  0  0  0
 12 16  1  0  0  0
 13 14  1  0  0  0
 13 24  1  0  0  0
 14 15  1  0  0  0
 14 17  1  0  0  0
 15 16  2  0  0  0
 17 18  2  0  0  0
 17 23  1  0  0  0
 18 19  1  0  0  0
 19 20  2  0  0  0
 20 21  1  0  0  0
 20 22  1  0  0  0
 22 23  2  0  0  0
 24 25  2  0  0  0
 24 29  1  0  0  0
 25 26  1  0  0  0
 26 27  2  0  0  0
 27 28  1  0  0  0
 28 29  2  0  0  0
M  END
>  <CHROM.0>
-61.98682619,62.68483147,-128.30625615,-63.60514006,168.29020970,-53.89143541
81.85556912,-162.62961104

>  <CHROM.1>
-52.38068438,39.60424460,136.18677053,177.52970857,-34.59907014,-20.39551444
20.79180027,-12.89383580,0.88016747,-0.69144704,-2.74668300

>  <Name>
F3398-2641

>  <RI>
1.8803e+07

>  <Rbt.Current_Directory>
/home/adria/Escritorio/rDock_CMTR_LC/2pxcA_model/inputs_sah

>  <Rbt.Executable>
rbdock ($Id: //depot/dev/client3/rdock/2013.1/src/exe/rbdock.cxx#4 $)

>  <Rbt.Library>
libRbt.so (2013.1, Build901 2013/11/27)

>  <Rbt.Parameter_File>
/home/adria/Escritorio/rDock_2013.1_src/data/scripts/dock.prm

>  <Rbt.Receptor>
sah_rdock.prm

>  <SCORE>
-308.674

>  <SCORE.INTER>
-19.1145

>  <SCORE.INTER.CONST>
1

>  <SCORE.INTER.POLAR>
-0.824621

>  <SCORE.INTER.REPUL>
0

>  <SCORE.INTER.ROT>
5

>  <SCORE.INTER.VDW>
-26.7108

>  <SCORE.INTER.norm>
-0.659122

>  <SCORE.INTRA>
-288.062

>  <SCORE.INTRA.DIHEDRAL>
-4.17476

>  <SCORE.INTRA.DIHEDRAL.0>
17.2324

>  <SCORE.INTRA.POLAR>
0

>  <SCORE.INTRA.POLAR.0>
0

>  <SCORE.INTRA.REPUL>
0

>  <SCORE.INTRA.REPUL.0>
0

>  <SCORE.INTRA.VDW>
-285.974

>  <SCORE.INTRA.VDW.0>
284.832

>  <SCORE.INTRA.norm>
-9.93317

>  <SCORE.RESTR>
0

>  <SCORE.RESTR.CAVITY>
0

>  <SCORE.RESTR.norm>
0

>  <SCORE.SYSTEM>
-1.49792

>  <SCORE.SYSTEM.CONST>
0

>  <SCORE.SYSTEM.DIHEDRAL>
5.78212

>  <SCORE.SYSTEM.POLAR>
-4.08621

>  <SCORE.SYSTEM.VDW>
9.50414

>  <SCORE.SYSTEM.norm>
-0.0516525

>  <SCORE.heavy>
29

>  <SCORE.norm>
-10.6439

$$$$
