F3406-2099
  rDOCK(R)          3D
libRbt.so/2013.1/901 2013/11/27
 26 27  0  0  0  0  0  0  0  0999 V2000
  -16.5807   18.6779  -16.8816 C   0  0  0  0  0  0
  -17.1192   19.8395  -16.2431 O   0  0  0  0  0  0
  -18.1721   19.6184  -15.4081 C   0  0  0  0  0  0
  -18.6064   18.5127  -15.1054 O   0  0  0  0  0  0
  -18.7136   20.9149  -14.8087 C   0  0  0  0  0  0
  -20.1232   20.8944  -14.4487 N   0  0  0  0  0  0
  -20.5360   20.4953  -13.1952 C   0  0  0  0  0  0
  -19.6993   20.1889  -12.3479 O   0  0  0  0  0  0
  -21.9721   20.4758  -12.9482 C   0  0  0  0  0  0
  -22.8286   21.5624  -12.8300 C   0  0  0  0  0  0
  -24.1917   21.1531  -12.6908 C   0  0  0  0  0  0
  -24.3318   19.7846  -12.6708 C   0  0  0  0  0  0
  -22.8263   18.9921  -12.7888 S   0  0  0  0  0  0
  -22.4680   22.9216  -12.9126 N   0  0  0  0  0  0
  -21.0550   23.3032  -13.0642 C   0  0  0  0  0  0
  -23.6405   24.1503  -13.0159 S   0  0  0  0  0  0
  -22.9524   25.4101  -13.1957 O   0  0  0  0  0  0
  -24.7049   23.7448  -13.9164 O   0  0  0  0  0  0
  -24.3250   24.1341  -11.3675 C   0  0  0  0  0  0
  -23.4867   24.0378  -10.2528 C   0  0  0  0  0  0
  -24.0518   23.8602   -8.9863 C   0  0  0  0  0  0
  -25.4389   23.7727   -8.8472 C   0  0  0  0  0  0
  -26.1246   23.4549   -7.3017 Cl  0  0  0  0  0  0
  -26.2723   23.9215   -9.9544 C   0  0  0  0  0  0
  -25.7144   24.1318  -11.2157 C   0  0  0  0  0  0
  -20.8219   21.0850  -15.1552 H   0  0  0  0  0  0
  1  2  1  0  0  0
  2  3  1  0  0  0
  3  4  2  0  0  0
  3  5  1  0  0  0
  5  6  1  0  0  0
  6  7  1  0  0  0
  6 26  1  0  0  0
  7  8  2  0  0  0
  7  9  1  0  0  0
  9 10  2  0  0  0
  9 13  1  0  0  0
 10 11  1  0  0  0
 10 14  1  0  0  0
 11 12  2  0  0  0
 12 13  1  0  0  0
 14 15  1  0  0  0
 14 16  1  0  0  0
 16 17  2  0  0  0
 16 18  2  0  0  0
 16 19  1  0  0  0
 19 20  2  0  0  0
 19 25  1  0  0  0
 20 21  1  0  0  0
 21 22  2  0  0  0
 22 23  1  0  0  0
 22 24  1  0  0  0
 24 25  2  0  0  0
M  END
>  <CHROM.0>
-63.08941839,68.30204466,-44.47466840,153.22652966,-30.67470599,57.83943037
83.92808483,-160.33047376

>  <CHROM.1>
5.51674020,152.37700143,89.61034138,-69.97033496,-3.68017226,-175.42465900
43.37968426,-22.43722399,21.94659277,-12.47995890,-0.17464172,0.78777644
-0.39811909

>  <Name>
F3406-2099

>  <RI>
2.62373e+07

>  <Rbt.Current_Directory>
/home/adria/Escritorio/rDock_CMTR_LC/2pxcA_model/inputs_sah

>  <Rbt.Executable>
rbdock ($Id: //depot/dev/client3/rdock/2013.1/src/exe/rbdock.cxx#4 $)

>  <Rbt.Library>
libRbt.so (2013.1, Build901 2013/11/27)

>  <Rbt.Parameter_File>
/home/adria/Escritorio/rDock_2013.1_src/data/scripts/dock.prm

>  <Rbt.Receptor>
sah_rdock.prm

>  <SCORE>
-51.3576

>  <SCORE.INTER>
-10.3153

>  <SCORE.INTER.CONST>
1

>  <SCORE.INTER.POLAR>
-0.894427

>  <SCORE.INTER.REPUL>
0.000693986

>  <SCORE.INTER.ROT>
7

>  <SCORE.INTER.VDW>
-19.6778

>  <SCORE.INTER.norm>
-0.412614

>  <SCORE.INTRA>
-37.3175

>  <SCORE.INTRA.DIHEDRAL>
-80.2255

>  <SCORE.INTRA.DIHEDRAL.0>
96.5542

>  <SCORE.INTRA.POLAR>
0

>  <SCORE.INTRA.POLAR.0>
0

>  <SCORE.INTRA.REPUL>
0

>  <SCORE.INTRA.REPUL.0>
0

>  <SCORE.INTRA.VDW>
2.79527

>  <SCORE.INTRA.VDW.0>
-2.81757

>  <SCORE.INTRA.norm>
-1.4927

>  <SCORE.RESTR>
0

>  <SCORE.RESTR.CAVITY>
0

>  <SCORE.RESTR.norm>
0

>  <SCORE.SYSTEM>
-3.72477

>  <SCORE.SYSTEM.CONST>
0

>  <SCORE.SYSTEM.DIHEDRAL>
9.20475

>  <SCORE.SYSTEM.POLAR>
-3.69453

>  <SCORE.SYSTEM.VDW>
4.23427

>  <SCORE.SYSTEM.norm>
-0.148991

>  <SCORE.heavy>
25

>  <SCORE.norm>
-2.0543

$$$$
F3406-2099
  rDOCK(R)          3D
libRbt.so/2013.1/901 2013/11/27
 26 27  0  0  0  0  0  0  0  0999 V2000
  -14.2771   13.6444  -19.5065 C   0  0  0  0  0  0
  -14.6458   14.1932  -18.2378 O   0  0  0  0  0  0
  -15.4680   13.4187  -17.4769 C   0  0  0  0  0  0
  -15.8282   12.2834  -17.7673 O   0  0  0  0  0  0
  -15.8344   14.0929  -16.1561 C   0  0  0  0  0  0
  -15.6038   15.5287  -16.1039 N   0  0  0  0  0  0
  -16.3003   16.3955  -16.9190 C   0  0  0  0  0  0
  -17.1630   15.9570  -17.6774 O   0  0  0  0  0  0
  -15.9679   17.8107  -16.8145 C   0  0  0  0  0  0
  -16.6677   18.7998  -16.1363 C   0  0  0  0  0  0
  -15.9831   20.0549  -16.1705 C   0  0  0  0  0  0
  -14.8144   19.9983  -16.8941 C   0  0  0  0  0  0
  -14.5542   18.4485  -17.5567 S   0  0  0  0  0  0
  -17.8656   18.6288  -15.4152 N   0  0  0  0  0  0
  -18.4717   17.2934  -15.2954 C   0  0  0  0  0  0
  -18.5572   19.9006  -14.5210 S   0  0  0  0  0  0
  -17.7151   20.1470  -13.3707 O   0  0  0  0  0  0
  -18.9405   20.9812  -15.4119 O   0  0  0  0  0  0
  -20.0688   19.1510  -13.9388 C   0  0  0  0  0  0
  -20.1737   18.6990  -12.6200 C   0  0  0  0  0  0
  -21.3024   17.9689  -12.2358 C   0  0  0  0  0  0
  -22.3048   17.6917  -13.1682 C   0  0  0  0  0  0
  -23.6433   16.7091  -12.7177 Cl  0  0  0  0  0  0
  -22.2202   18.1888  -14.4676 C   0  0  0  0  0  0
  -21.1114   18.9459  -14.8467 C   0  0  0  0  0  0
  -14.8550   15.8936  -15.5294 H   0  0  0  0  0  0
  1  2  1  0  0  0
  2  3  1  0  0  0
  3  4  2  0  0  0
  3  5  1  0  0  0
  5  6  1  0  0  0
  6  7  1  0  0  0
  6 26  1  0  0  0
  7  8  2  0  0  0
  7  9  1  0  0  0
  9 10  2  0  0  0
  9 13  1  0  0  0
 10 11  1  0  0  0
 10 14  1  0  0  0
 11 12  2  0  0  0
 12 13  1  0  0  0
 14 15  1  0  0  0
 14 16  1  0  0  0
 16 17  2  0  0  0
 16 18  2  0  0  0
 16 19  1  0  0  0
 19 20  2  0  0  0
 19 25  1  0  0  0
 20 21  1  0  0  0
 21 22  2  0  0  0
 22 23  1  0  0  0
 22 24  1  0  0  0
 24 25  2  0  0  0
M  END
>  <CHROM.0>
-177.83498598,63.59300904,74.28455643,66.46325669,-28.33506075,58.96552474
-156.91351295,-164.90468994

>  <CHROM.1>
4.78864928,17.47535379,64.29957524,-101.16538703,1.85423264,-70.51181708
102.47417886,-17.95680254,17.47150526,-15.57799818,0.47386164,-0.51074838
-2.92255969

>  <Name>
F3406-2099

>  <RI>
2.62373e+07

>  <Rbt.Current_Directory>
/home/adria/Escritorio/rDock_CMTR_LC/2pxcA_model/inputs_sah

>  <Rbt.Executable>
rbdock ($Id: //depot/dev/client3/rdock/2013.1/src/exe/rbdock.cxx#4 $)

>  <Rbt.Library>
libRbt.so (2013.1, Build901 2013/11/27)

>  <Rbt.Parameter_File>
/home/adria/Escritorio/rDock_2013.1_src/data/scripts/dock.prm

>  <Rbt.Receptor>
sah_rdock.prm

>  <SCORE>
-54.9791

>  <SCORE.INTER>
-11.9928

>  <SCORE.INTER.CONST>
1

>  <SCORE.INTER.POLAR>
-0.00304765

>  <SCORE.INTER.REPUL>
0

>  <SCORE.INTER.ROT>
7

>  <SCORE.INTER.VDW>
-24.3825

>  <SCORE.INTER.norm>
-0.479713

>  <SCORE.INTRA>
-35.9537

>  <SCORE.INTRA.DIHEDRAL>
-80.4492

>  <SCORE.INTRA.DIHEDRAL.0>
96.5542

>  <SCORE.INTRA.POLAR>
0

>  <SCORE.INTRA.POLAR.0>
0

>  <SCORE.INTRA.REPUL>
0

>  <SCORE.INTRA.REPUL.0>
0

>  <SCORE.INTRA.VDW>
4.27089

>  <SCORE.INTRA.VDW.0>
-2.81757

>  <SCORE.INTRA.norm>
-1.43815

>  <SCORE.RESTR>
0

>  <SCORE.RESTR.CAVITY>
0

>  <SCORE.RESTR.norm>
0

>  <SCORE.SYSTEM>
-7.03256

>  <SCORE.SYSTEM.CONST>
0

>  <SCORE.SYSTEM.DIHEDRAL>
6.17532

>  <SCORE.SYSTEM.POLAR>
-3.79975

>  <SCORE.SYSTEM.VDW>
2.79892

>  <SCORE.SYSTEM.norm>
-0.281302

>  <SCORE.heavy>
25

>  <SCORE.norm>
-2.19916

$$$$
F3406-2099
  rDOCK(R)          3D
libRbt.so/2013.1/901 2013/11/27
 26 27  0  0  0  0  0  0  0  0999 V2000
  -18.6960   25.2464  -10.1793 C   0  0  0  0  0  0
  -19.9429   24.5553  -10.0584 O   0  0  0  0  0  0
  -21.0251   25.3354   -9.7848 C   0  0  0  0  0  0
  -21.0194   26.5612   -9.7683 O   0  0  0  0  0  0
  -22.2933   24.5090   -9.5794 C   0  0  0  0  0  0
  -22.7024   23.7011  -10.7183 N   0  0  0  0  0  0
  -23.5167   22.6000  -10.5592 C   0  0  0  0  0  0
  -23.9418   22.3141   -9.4415 O   0  0  0  0  0  0
  -23.8377   21.8375  -11.7590 C   0  0  0  0  0  0
  -23.3237   20.6072  -12.1465 C   0  0  0  0  0  0
  -23.9507   20.1189  -13.3354 C   0  0  0  0  0  0
  -24.8871   20.9942  -13.8351 C   0  0  0  0  0  0
  -24.9922   22.4136  -12.8954 S   0  0  0  0  0  0
  -22.3627   19.8480  -11.4505 N   0  0  0  0  0  0
  -21.9441   20.2474  -10.0976 C   0  0  0  0  0  0
  -21.7851   18.3675  -12.0586 S   0  0  0  0  0  0
  -20.9980   17.7358  -11.0221 O   0  0  0  0  0  0
  -22.8600   17.6513  -12.7220 O   0  0  0  0  0  0
  -20.6649   18.9154  -13.3355 C   0  0  0  0  0  0
  -19.7262   18.0345  -13.8808 C   0  0  0  0  0  0
  -18.7541   18.5279  -14.7562 C   0  0  0  0  0  0
  -18.7239   19.8887  -15.0700 C   0  0  0  0  0  0
  -17.4669   20.5080  -16.0681 Cl  0  0  0  0  0  0
  -19.6933   20.7534  -14.5650 C   0  0  0  0  0  0
  -20.6852   20.2598  -13.7171 C   0  0  0  0  0  0
  -22.3099   23.8905  -11.6315 H   0  0  0  0  0  0
  1  2  1  0  0  0
  2  3  1  0  0  0
  3  4  2  0  0  0
  3  5  1  0  0  0
  5  6  1  0  0  0
  6  7  1  0  0  0
  6 26  1  0  0  0
  7  8  2  0  0  0
  7  9  1  0  0  0
  9 10  2  0  0  0
  9 13  1  0  0  0
 10 11  1  0  0  0
 10 14  1  0  0  0
 11 12  2  0  0  0
 12 13  1  0  0  0
 14 15  1  0  0  0
 14 16  1  0  0  0
 16 17  2  0  0  0
 16 18  2  0  0  0
 16 19  1  0  0  0
 19 20  2  0  0  0
 19 25  1  0  0  0
 20 21  1  0  0  0
 21 22  2  0  0  0
 22 23  1  0  0  0
 22 24  1  0  0  0
 24 25  2  0  0  0
M  END
>  <CHROM.0>
-59.15784936,-168.52718789,-166.93136338,67.30240205,-32.18042996,178.98423118
-51.78109486,-162.94352573

>  <CHROM.1>
7.41406683,-60.39832130,157.89094503,104.76091543,8.54417329,-170.40138648
164.45138327,-21.52941825,21.18364551,-12.27879712,-1.99470260,-0.39528424
-2.63938035

>  <Name>
F3406-2099

>  <RI>
2.62373e+07

>  <Rbt.Current_Directory>
/home/adria/Escritorio/rDock_CMTR_LC/2pxcA_model/inputs_sah

>  <Rbt.Executable>
rbdock ($Id: //depot/dev/client3/rdock/2013.1/src/exe/rbdock.cxx#4 $)

>  <Rbt.Library>
libRbt.so (2013.1, Build901 2013/11/27)

>  <Rbt.Parameter_File>
/home/adria/Escritorio/rDock_2013.1_src/data/scripts/dock.prm

>  <Rbt.Receptor>
sah_rdock.prm

>  <SCORE>
-52.9551

>  <SCORE.INTER>
-11.6209

>  <SCORE.INTER.CONST>
1

>  <SCORE.INTER.POLAR>
-1.54959

>  <SCORE.INTER.REPUL>
0

>  <SCORE.INTER.ROT>
7

>  <SCORE.INTER.VDW>
-18.7522

>  <SCORE.INTER.norm>
-0.464835

>  <SCORE.INTRA>
-35.8042

>  <SCORE.INTRA.DIHEDRAL>
-78.3456

>  <SCORE.INTRA.DIHEDRAL.0>
96.5542

>  <SCORE.INTRA.POLAR>
0

>  <SCORE.INTRA.POLAR.0>
0

>  <SCORE.INTRA.REPUL>
0

>  <SCORE.INTRA.REPUL.0>
0

>  <SCORE.INTRA.VDW>
3.36855

>  <SCORE.INTRA.VDW.0>
-2.81757

>  <SCORE.INTRA.norm>
-1.43217

>  <SCORE.RESTR>
0

>  <SCORE.RESTR.CAVITY>
0

>  <SCORE.RESTR.norm>
0

>  <SCORE.SYSTEM>
-5.52998

>  <SCORE.SYSTEM.CONST>
0

>  <SCORE.SYSTEM.DIHEDRAL>
5.06888

>  <SCORE.SYSTEM.POLAR>
-3.2099

>  <SCORE.SYSTEM.VDW>
2.84923

>  <SCORE.SYSTEM.norm>
-0.221199

>  <SCORE.heavy>
25

>  <SCORE.norm>
-2.1182

$$$$
F3406-2099
  rDOCK(R)          3D
libRbt.so/2013.1/901 2013/11/27
 26 27  0  0  0  0  0  0  0  0999 V2000
  -19.4645   16.9382  -14.5692 C   0  0  0  0  0  0
  -20.3956   16.8353  -13.4878 O   0  0  0  0  0  0
  -21.4487   17.6977  -13.5327 C   0  0  0  0  0  0
  -21.7063   18.4411  -14.4728 O   0  0  0  0  0  0
  -22.3428   17.5790  -12.2998 C   0  0  0  0  0  0
  -22.4210   18.7712  -11.4693 N   0  0  0  0  0  0
  -23.5241   19.0236  -10.6817 C   0  0  0  0  0  0
  -24.4447   18.2094  -10.6448 O   0  0  0  0  0  0
  -23.5187   20.2636   -9.9160 C   0  0  0  0  0  0
  -23.6718   21.5581  -10.3945 C   0  0  0  0  0  0
  -23.7145   22.5162   -9.3337 C   0  0  0  0  0  0
  -23.5588   21.9383   -8.0949 C   0  0  0  0  0  0
  -23.3318   20.2518   -8.2068 S   0  0  0  0  0  0
  -23.8511   21.9344  -11.7401 N   0  0  0  0  0  0
  -24.0536   20.9070  -12.7738 C   0  0  0  0  0  0
  -24.0141   23.5657  -12.1955 S   0  0  0  0  0  0
  -23.8873   23.6421  -13.6346 O   0  0  0  0  0  0
  -25.1494   24.1596  -11.5125 O   0  0  0  0  0  0
  -22.5465   24.2874  -11.4805 C   0  0  0  0  0  0
  -22.5812   25.5767  -10.9411 C   0  0  0  0  0  0
  -21.3864   26.1816  -10.5393 C   0  0  0  0  0  0
  -20.1757   25.5008  -10.6868 C   0  0  0  0  0  0
  -18.6989   26.2861  -10.2839 Cl  0  0  0  0  0  0
  -20.1521   24.1961  -11.1765 C   0  0  0  0  0  0
  -21.3453   23.5760  -11.5481 C   0  0  0  0  0  0
  -21.6987   19.4763  -11.5385 H   0  0  0  0  0  0
  1  2  1  0  0  0
  2  3  1  0  0  0
  3  4  2  0  0  0
  3  5  1  0  0  0
  5  6  1  0  0  0
  6  7  1  0  0  0
  6 26  1  0  0  0
  7  8  2  0  0  0
  7  9  1  0  0  0
  9 10  2  0  0  0
  9 13  1  0  0  0
 10 11  1  0  0  0
 10 14  1  0  0  0
 11 12  2  0  0  0
 12 13  1  0  0  0
 14 15  1  0  0  0
 14 16  1  0  0  0
 16 17  2  0  0  0
 16 18  2  0  0  0
 16 19  1  0  0  0
 19 20  2  0  0  0
 19 25  1  0  0  0
 20 21  1  0  0  0
 21 22  2  0  0  0
 22 23  1  0  0  0
 22 24  1  0  0  0
 24 25  2  0  0  0
M  END
>  <CHROM.0>
-61.03593844,-76.26929305,-8.13357535,-59.89792452,-30.37912290,61.87643101
-36.00463481,-161.67887298

>  <CHROM.1>
7.08399213,117.00710856,153.76321637,72.24490897,7.43635314,167.67903342
-143.77720521,-22.37958212,21.79007771,-11.32503330,-1.70816590,0.54957253
0.31100735

>  <Name>
F3406-2099

>  <RI>
2.62373e+07

>  <Rbt.Current_Directory>
/home/adria/Escritorio/rDock_CMTR_LC/2pxcA_model/inputs_sah

>  <Rbt.Executable>
rbdock ($Id: //depot/dev/client3/rdock/2013.1/src/exe/rbdock.cxx#4 $)

>  <Rbt.Library>
libRbt.so (2013.1, Build901 2013/11/27)

>  <Rbt.Parameter_File>
/home/adria/Escritorio/rDock_2013.1_src/data/scripts/dock.prm

>  <Rbt.Receptor>
sah_rdock.prm

>  <SCORE>
-56.6506

>  <SCORE.INTER>
-12.1076

>  <SCORE.INTER.CONST>
1

>  <SCORE.INTER.POLAR>
-0.824621

>  <SCORE.INTER.REPUL>
0

>  <SCORE.INTER.ROT>
7

>  <SCORE.INTER.VDW>
-21.7039

>  <SCORE.INTER.norm>
-0.484305

>  <SCORE.INTRA>
-37.2975

>  <SCORE.INTRA.DIHEDRAL>
-79.6457

>  <SCORE.INTRA.DIHEDRAL.0>
96.5542

>  <SCORE.INTRA.POLAR>
0

>  <SCORE.INTRA.POLAR.0>
0

>  <SCORE.INTRA.REPUL>
0

>  <SCORE.INTRA.REPUL.0>
0

>  <SCORE.INTRA.VDW>
2.52529

>  <SCORE.INTRA.VDW.0>
-2.81757

>  <SCORE.INTRA.norm>
-1.4919

>  <SCORE.RESTR>
0

>  <SCORE.RESTR.CAVITY>
0

>  <SCORE.RESTR.norm>
0

>  <SCORE.SYSTEM>
-7.24546

>  <SCORE.SYSTEM.CONST>
0

>  <SCORE.SYSTEM.DIHEDRAL>
9.9287

>  <SCORE.SYSTEM.POLAR>
-4.71078

>  <SCORE.SYSTEM.REPUL>
0.0438437

>  <SCORE.SYSTEM.VDW>
3.58764

>  <SCORE.SYSTEM.norm>
-0.289818

>  <SCORE.heavy>
25

>  <SCORE.norm>
-2.26602

$$$$
F3406-2099
  rDOCK(R)          3D
libRbt.so/2013.1/901 2013/11/27
 26 27  0  0  0  0  0  0  0  0999 V2000
  -21.1331   17.7017  -15.4498 C   0  0  0  0  0  0
  -22.1294   17.7168  -14.4232 O   0  0  0  0  0  0
  -21.7048   17.3438  -13.1841 C   0  0  0  0  0  0
  -20.5509   17.0432  -12.8997 O   0  0  0  0  0  0
  -22.8218   17.4224  -12.1450 C   0  0  0  0  0  0
  -22.7948   18.5982  -11.2883 N   0  0  0  0  0  0
  -23.9461   19.2996  -10.9994 C   0  0  0  0  0  0
  -25.0251   18.9053  -11.4376 O   0  0  0  0  0  0
  -23.8049   20.4838  -10.1616 C   0  0  0  0  0  0
  -23.8880   21.8142  -10.5503 C   0  0  0  0  0  0
  -23.7989   22.7019   -9.4327 C   0  0  0  0  0  0
  -23.6166   22.0351   -8.2431 C   0  0  0  0  0  0
  -23.5225   20.3476   -8.4710 S   0  0  0  0  0  0
  -24.1149   22.2889  -11.8570 N   0  0  0  0  0  0
  -24.4010   21.3431  -12.9473 C   0  0  0  0  0  0
  -24.2402   23.9524  -12.1920 S   0  0  0  0  0  0
  -24.3824   24.1101  -13.6230 O   0  0  0  0  0  0
  -25.1790   24.5732  -11.2747 O   0  0  0  0  0  0
  -22.6147   24.5342  -11.7389 C   0  0  0  0  0  0
  -21.4786   23.7860  -12.0614 C   0  0  0  0  0  0
  -20.2362   24.1768  -11.5531 C   0  0  0  0  0  0
  -20.1422   25.2988  -10.7265 C   0  0  0  0  0  0
  -18.6290   25.7181  -10.0233 Cl  0  0  0  0  0  0
  -21.2690   26.0713  -10.4504 C   0  0  0  0  0  0
  -22.5054   25.7041  -10.9821 C   0  0  0  0  0  0
  -21.9066   18.9663  -10.9733 H   0  0  0  0  0  0
  1  2  1  0  0  0
  2  3  1  0  0  0
  3  4  2  0  0  0
  3  5  1  0  0  0
  5  6  1  0  0  0
  6  7  1  0  0  0
  6 26  1  0  0  0
  7  8  2  0  0  0
  7  9  1  0  0  0
  9 10  2  0  0  0
  9 13  1  0  0  0
 10 11  1  0  0  0
 10 14  1  0  0  0
 11 12  2  0  0  0
 12 13  1  0  0  0
 14 15  1  0  0  0
 14 16  1  0  0  0
 16 17  2  0  0  0
 16 18  2  0  0  0
 16 19  1  0  0  0
 19 20  2  0  0  0
 19 25  1  0  0  0
 20 21  1  0  0  0
 21 22  2  0  0  0
 22 23  1  0  0  0
 22 24  1  0  0  0
 24 25  2  0  0  0
M  END
>  <CHROM.0>
-61.64652800,-167.29009860,-8.40706857,-146.78531917,33.86852506,-175.24781734
-157.45999957,-157.48736222

>  <CHROM.1>
2.10731995,-100.92735195,136.13858439,106.62238498,5.08945743,176.27821718
40.71460389,-22.62966171,21.89404943,-11.40453179,-1.75219461,0.31509633
0.31703184

>  <Name>
F3406-2099

>  <RI>
2.62373e+07

>  <Rbt.Current_Directory>
/home/adria/Escritorio/rDock_CMTR_LC/2pxcA_model/inputs_sah

>  <Rbt.Executable>
rbdock ($Id: //depot/dev/client3/rdock/2013.1/src/exe/rbdock.cxx#4 $)

>  <Rbt.Library>
libRbt.so (2013.1, Build901 2013/11/27)

>  <Rbt.Parameter_File>
/home/adria/Escritorio/rDock_2013.1_src/data/scripts/dock.prm

>  <Rbt.Receptor>
sah_rdock.prm

>  <SCORE>
-40.7818

>  <SCORE.INTER>
-12.5671

>  <SCORE.INTER.CONST>
1

>  <SCORE.INTER.POLAR>
-0.824621

>  <SCORE.INTER.REPUL>
0

>  <SCORE.INTER.ROT>
7

>  <SCORE.INTER.VDW>
-22.1634

>  <SCORE.INTER.norm>
-0.502686

>  <SCORE.INTRA>
-37.2704

>  <SCORE.INTRA.DIHEDRAL>
-79.9896

>  <SCORE.INTRA.DIHEDRAL.0>
96.5542

>  <SCORE.INTRA.POLAR>
0

>  <SCORE.INTRA.POLAR.0>
0

>  <SCORE.INTRA.REPUL>
0

>  <SCORE.INTRA.REPUL.0>
0

>  <SCORE.INTRA.VDW>
2.7244

>  <SCORE.INTRA.VDW.0>
-2.81757

>  <SCORE.INTRA.norm>
-1.49082

>  <SCORE.RESTR>
0

>  <SCORE.RESTR.CAVITY>
0

>  <SCORE.RESTR.norm>
0

>  <SCORE.SYSTEM>
9.05571

>  <SCORE.SYSTEM.CONST>
0

>  <SCORE.SYSTEM.DIHEDRAL>
13.1631

>  <SCORE.SYSTEM.POLAR>
-4.04922

>  <SCORE.SYSTEM.VDW>
16.2415

>  <SCORE.SYSTEM.norm>
0.362228

>  <SCORE.heavy>
25

>  <SCORE.norm>
-1.63127

$$$$
F3406-2099
  rDOCK(R)          3D
libRbt.so/2013.1/901 2013/11/27
 26 27  0  0  0  0  0  0  0  0999 V2000
  -21.1909   18.2800  -11.8613 C   0  0  0  0  0  0
  -22.3708   18.5191  -11.0883 O   0  0  0  0  0  0
  -23.4425   17.7350  -11.3906 C   0  0  0  0  0  0
  -23.4240   16.7962  -12.1788 O   0  0  0  0  0  0
  -24.6745   18.1008  -10.5650 C   0  0  0  0  0  0
  -24.7074   19.4672  -10.0659 N   0  0  0  0  0  0
  -25.4916   20.4295  -10.6657 C   0  0  0  0  0  0
  -26.2102   20.1238  -11.6154 O   0  0  0  0  0  0
  -25.4245   21.7756  -10.1112 C   0  0  0  0  0  0
  -24.8292   22.8972  -10.6732 C   0  0  0  0  0  0
  -25.0522   24.0695   -9.8851 C   0  0  0  0  0  0
  -25.7706   23.8071   -8.7415 C   0  0  0  0  0  0
  -26.1511   22.1508   -8.5987 S   0  0  0  0  0  0
  -24.1485   22.9513  -11.9053 N   0  0  0  0  0  0
  -24.0968   21.7645  -12.7735 C   0  0  0  0  0  0
  -23.5194   24.4109  -12.5128 S   0  0  0  0  0  0
  -23.1661   24.2015  -13.9000 O   0  0  0  0  0  0
  -24.3696   25.5195  -12.1172 O   0  0  0  0  0  0
  -22.0042   24.5648  -11.5821 C   0  0  0  0  0  0
  -21.6469   25.7878  -11.0066 C   0  0  0  0  0  0
  -20.3823   25.9265  -10.4268 C   0  0  0  0  0  0
  -19.4895   24.8524  -10.4347 C   0  0  0  0  0  0
  -17.8998   25.0576   -9.8096 Cl  0  0  0  0  0  0
  -19.8693   23.6198  -10.9631 C   0  0  0  0  0  0
  -21.1422   23.4668  -11.5133 C   0  0  0  0  0  0
  -24.0755   19.7438   -9.3257 H   0  0  0  0  0  0
  1  2  1  0  0  0
  2  3  1  0  0  0
  3  4  2  0  0  0
  3  5  1  0  0  0
  5  6  1  0  0  0
  6  7  1  0  0  0
  6 26  1  0  0  0
  7  8  2  0  0  0
  7  9  1  0  0  0
  9 10  2  0  0  0
  9 13  1  0  0  0
 10 11  1  0  0  0
 10 14  1  0  0  0
 11 12  2  0  0  0
 12 13  1  0  0  0
 14 15  1  0  0  0
 14 16  1  0  0  0
 16 17  2  0  0  0
 16 18  2  0  0  0
 16 19  1  0  0  0
 19 20  2  0  0  0
 19 25  1  0  0  0
 20 21  1  0  0  0
 21 22  2  0  0  0
 22 23  1  0  0  0
 22 24  1  0  0  0
 24 25  2  0  0  0
M  END
>  <CHROM.0>
-177.07459675,-70.68969842,-164.32853352,65.06981676,24.13086736,58.44463050
83.58342961,-159.49456523

>  <CHROM.1>
6.21169800,24.67310458,102.59160754,108.08737638,4.24630689,-167.01363561
-134.87158262,-23.10358719,22.41859945,-10.99085910,-2.22709949,0.08021144
0.06997458

>  <Name>
F3406-2099

>  <RI>
2.62373e+07

>  <Rbt.Current_Directory>
/home/adria/Escritorio/rDock_CMTR_LC/2pxcA_model/inputs_sah

>  <Rbt.Executable>
rbdock ($Id: //depot/dev/client3/rdock/2013.1/src/exe/rbdock.cxx#4 $)

>  <Rbt.Library>
libRbt.so (2013.1, Build901 2013/11/27)

>  <Rbt.Parameter_File>
/home/adria/Escritorio/rDock_2013.1_src/data/scripts/dock.prm

>  <Rbt.Receptor>
sah_rdock.prm

>  <SCORE>
-42.5146

>  <SCORE.INTER>
-10.5307

>  <SCORE.INTER.CONST>
1

>  <SCORE.INTER.POLAR>
-0.482294

>  <SCORE.INTER.REPUL>
0

>  <SCORE.INTER.ROT>
7

>  <SCORE.INTER.VDW>
-21.2909

>  <SCORE.INTER.norm>
-0.421228

>  <SCORE.INTRA>
-36.9846

>  <SCORE.INTRA.DIHEDRAL>
-80.4945

>  <SCORE.INTRA.DIHEDRAL.0>
96.5542

>  <SCORE.INTRA.POLAR>
0

>  <SCORE.INTRA.POLAR.0>
0

>  <SCORE.INTRA.REPUL>
0

>  <SCORE.INTRA.REPUL.0>
0

>  <SCORE.INTRA.VDW>
3.26267

>  <SCORE.INTRA.VDW.0>
-2.81757

>  <SCORE.INTRA.norm>
-1.47938

>  <SCORE.RESTR>
0

>  <SCORE.RESTR.CAVITY>
0

>  <SCORE.RESTR.norm>
0

>  <SCORE.SYSTEM>
5.00071

>  <SCORE.SYSTEM.CONST>
0

>  <SCORE.SYSTEM.DIHEDRAL>
7.78088

>  <SCORE.SYSTEM.POLAR>
-3.70225

>  <SCORE.SYSTEM.REPUL>
0.0341515

>  <SCORE.SYSTEM.VDW>
13.5272

>  <SCORE.SYSTEM.norm>
0.200029

>  <SCORE.heavy>
25

>  <SCORE.norm>
-1.70058

$$$$
F3406-2099
  rDOCK(R)          3D
libRbt.so/2013.1/901 2013/11/27
 26 27  0  0  0  0  0  0  0  0999 V2000
  -21.5379   26.0586   -9.4724 C   0  0  0  0  0  0
  -20.7443   25.2043  -10.3014 O   0  0  0  0  0  0
  -21.4266   24.5024  -11.2484 C   0  0  0  0  0  0
  -22.6222   24.6283  -11.4883 O   0  0  0  0  0  0
  -20.5109   23.5836  -12.0550 C   0  0  0  0  0  0
  -21.1853   22.5424  -12.8154 N   0  0  0  0  0  0
  -21.6954   21.4208  -12.1968 C   0  0  0  0  0  0
  -21.6182   21.3119  -10.9745 O   0  0  0  0  0  0
  -22.3195   20.4206  -13.0536 C   0  0  0  0  0  0
  -21.6979   19.3974  -13.7569 C   0  0  0  0  0  0
  -22.6453   18.5481  -14.4097 C   0  0  0  0  0  0
  -23.9434   18.9619  -14.2188 C   0  0  0  0  0  0
  -24.0233   20.3849  -13.2822 S   0  0  0  0  0  0
  -20.3154   19.1297  -13.7924 N   0  0  0  0  0  0
  -19.3875   19.9252  -12.9730 C   0  0  0  0  0  0
  -19.6883   17.7886  -14.6311 S   0  0  0  0  0  0
  -19.1866   16.8462  -13.6548 O   0  0  0  0  0  0
  -20.6194   17.3705  -15.6638 O   0  0  0  0  0  0
  -18.2837   18.5095  -15.4639 C   0  0  0  0  0  0
  -17.1174   17.7643  -15.6612 C   0  0  0  0  0  0
  -15.9780   18.3992  -16.1645 C   0  0  0  0  0  0
  -16.0116   19.7649  -16.4561 C   0  0  0  0  0  0
  -14.5802   20.5624  -16.9807 Cl  0  0  0  0  0  0
  -17.1913   20.4919  -16.3069 C   0  0  0  0  0  0
  -18.3401   19.8555  -15.8362 C   0  0  0  0  0  0
  -21.2002   22.5922  -13.8259 H   0  0  0  0  0  0
  1  2  1  0  0  0
  2  3  1  0  0  0
  3  4  2  0  0  0
  3  5  1  0  0  0
  5  6  1  0  0  0
  6  7  1  0  0  0
  6 26  1  0  0  0
  7  8  2  0  0  0
  7  9  1  0  0  0
  9 10  2  0  0  0
  9 13  1  0  0  0
 10 11  1  0  0  0
 10 14  1  0  0  0
 11 12  2  0  0  0
 12 13  1  0  0  0
 14 15  1  0  0  0
 14 16  1  0  0  0
 16 17  2  0  0  0
 16 18  2  0  0  0
 16 19  1  0  0  0
 19 20  2  0  0  0
 19 25  1  0  0  0
 20 21  1  0  0  0
 21 22  2  0  0  0
 22 23  1  0  0  0
 22 24  1  0  0  0
 24 25  2  0  0  0
M  END
>  <CHROM.0>
-178.26244445,-166.88742569,-165.91814283,65.83986145,-30.68903408,-178.58231937
-156.65977753,-161.49029012

>  <CHROM.1>
5.44765272,163.59723732,-75.61776703,84.25849361,3.59023969,-110.63216652
145.39826975,-20.00434594,20.45626924,-13.84055920,-2.33948074,-0.37732330
-2.66323684

>  <Name>
F3406-2099

>  <RI>
2.62373e+07

>  <Rbt.Current_Directory>
/home/adria/Escritorio/rDock_CMTR_LC/2pxcA_model/inputs_sah

>  <Rbt.Executable>
rbdock ($Id: //depot/dev/client3/rdock/2013.1/src/exe/rbdock.cxx#4 $)

>  <Rbt.Library>
libRbt.so (2013.1, Build901 2013/11/27)

>  <Rbt.Parameter_File>
/home/adria/Escritorio/rDock_2013.1_src/data/scripts/dock.prm

>  <Rbt.Receptor>
sah_rdock.prm

>  <SCORE>
-53.6843

>  <SCORE.INTER>
-11.91

>  <SCORE.INTER.CONST>
1

>  <SCORE.INTER.POLAR>
-0.824621

>  <SCORE.INTER.REPUL>
0.0440269

>  <SCORE.INTER.ROT>
7

>  <SCORE.INTER.VDW>
-21.7265

>  <SCORE.INTER.norm>
-0.476402

>  <SCORE.INTRA>
-35.7845

>  <SCORE.INTRA.DIHEDRAL>
-79.5977

>  <SCORE.INTRA.DIHEDRAL.0>
96.5542

>  <SCORE.INTRA.POLAR>
0

>  <SCORE.INTRA.POLAR.0>
0

>  <SCORE.INTRA.REPUL>
0

>  <SCORE.INTRA.REPUL.0>
0

>  <SCORE.INTRA.VDW>
4.01436

>  <SCORE.INTRA.VDW.0>
-2.81757

>  <SCORE.INTRA.norm>
-1.43138

>  <SCORE.RESTR>
0

>  <SCORE.RESTR.CAVITY>
0

>  <SCORE.RESTR.norm>
0

>  <SCORE.SYSTEM>
-5.98974

>  <SCORE.SYSTEM.CONST>
0

>  <SCORE.SYSTEM.DIHEDRAL>
6.60909

>  <SCORE.SYSTEM.POLAR>
-3.69234

>  <SCORE.SYSTEM.VDW>
3.25969

>  <SCORE.SYSTEM.norm>
-0.239589

>  <SCORE.heavy>
25

>  <SCORE.norm>
-2.14737

$$$$
F3406-2099
  rDOCK(R)          3D
libRbt.so/2013.1/901 2013/11/27
 26 27  0  0  0  0  0  0  0  0999 V2000
  -25.0705   18.8933   -8.5567 C   0  0  0  0  0  0
  -24.7794   20.0779   -7.8092 O   0  0  0  0  0  0
  -25.5227   21.1737   -8.1281 C   0  0  0  0  0  0
  -26.5317   21.1578   -8.8242 O   0  0  0  0  0  0
  -25.0061   22.4385   -7.4448 C   0  0  0  0  0  0
  -23.9725   23.1613   -8.1702 N   0  0  0  0  0  0
  -24.2685   24.2933   -8.8995 C   0  0  0  0  0  0
  -25.4183   24.7286   -8.9076 O   0  0  0  0  0  0
  -23.1678   24.9214   -9.6192 C   0  0  0  0  0  0
  -22.8674   24.8174  -10.9709 C   0  0  0  0  0  0
  -21.7703   25.6577  -11.3387 C   0  0  0  0  0  0
  -21.2483   26.3427  -10.2658 C   0  0  0  0  0  0
  -22.0545   25.9550   -8.8138 S   0  0  0  0  0  0
  -23.5721   24.0588  -11.9260 N   0  0  0  0  0  0
  -24.8534   23.4291  -11.5701 C   0  0  0  0  0  0
  -23.0719   23.9843  -13.5506 S   0  0  0  0  0  0
  -24.2203   23.6288  -14.3554 O   0  0  0  0  0  0
  -22.2634   25.1463  -13.8738 O   0  0  0  0  0  0
  -21.9700   22.5803  -13.5240 C   0  0  0  0  0  0
  -22.3855   21.3635  -12.9750 C   0  0  0  0  0  0
  -21.4545   20.3327  -12.8153 C   0  0  0  0  0  0
  -20.1246   20.5286  -13.1950 C   0  0  0  0  0  0
  -18.9622   19.2938  -12.9052 Cl  0  0  0  0  0  0
  -19.7270   21.7248  -13.7897 C   0  0  0  0  0  0
  -20.6596   22.7444  -13.9814 C   0  0  0  0  0  0
  -23.0372   22.7785   -8.2206 H   0  0  0  0  0  0
  1  2  1  0  0  0
  2  3  1  0  0  0
  3  4  2  0  0  0
  3  5  1  0  0  0
  5  6  1  0  0  0
  6  7  1  0  0  0
  6 26  1  0  0  0
  7  8  2  0  0  0
  7  9  1  0  0  0
  9 10  2  0  0  0
  9 13  1  0  0  0
 10 11  1  0  0  0
 10 14  1  0  0  0
 11 12  2  0  0  0
 12 13  1  0  0  0
 14 15  1  0  0  0
 14 16  1  0  0  0
 16 17  2  0  0  0
 16 18  2  0  0  0
 16 19  1  0  0  0
 19 20  2  0  0  0
 19 25  1  0  0  0
 20 21  1  0  0  0
 21 22  2  0  0  0
 22 23  1  0  0  0
 22 24  1  0  0  0
 24 25  2  0  0  0
M  END
>  <CHROM.0>
-57.09162571,-69.33652652,-42.80786283,66.36843952,169.06960188,-59.07230457
82.79249553,-164.62676969

>  <CHROM.1>
12.42709953,87.75800282,101.06257821,100.60822678,8.57095504,-156.84854824
51.42351121,-22.82150590,22.87679265,-11.12759002,2.99708854,0.89209598,-0.12273431

>  <Name>
F3406-2099

>  <RI>
2.62373e+07

>  <Rbt.Current_Directory>
/home/adria/Escritorio/rDock_CMTR_LC/2pxcA_model/inputs_sah

>  <Rbt.Executable>
rbdock ($Id: //depot/dev/client3/rdock/2013.1/src/exe/rbdock.cxx#4 $)

>  <Rbt.Library>
libRbt.so (2013.1, Build901 2013/11/27)

>  <Rbt.Parameter_File>
/home/adria/Escritorio/rDock_2013.1_src/data/scripts/dock.prm

>  <Rbt.Receptor>
sah_rdock.prm

>  <SCORE>
-44.6261

>  <SCORE.INTER>
-7.06278

>  <SCORE.INTER.CONST>
1

>  <SCORE.INTER.POLAR>
-1.18471

>  <SCORE.INTER.REPUL>
0

>  <SCORE.INTER.ROT>
7

>  <SCORE.INTER.VDW>
-15.4348

>  <SCORE.INTER.norm>
-0.282511

>  <SCORE.INTRA>
-35.3719

>  <SCORE.INTRA.DIHEDRAL>
-77.6293

>  <SCORE.INTRA.DIHEDRAL.0>
96.5542

>  <SCORE.INTRA.POLAR>
0

>  <SCORE.INTRA.POLAR.0>
0

>  <SCORE.INTRA.REPUL>
0

>  <SCORE.INTRA.REPUL.0>
0

>  <SCORE.INTRA.VDW>
3.44276

>  <SCORE.INTRA.VDW.0>
-2.81757

>  <SCORE.INTRA.norm>
-1.41487

>  <SCORE.RESTR>
0.123717

>  <SCORE.RESTR.CAVITY>
0.123717

>  <SCORE.RESTR.norm>
0.00494869

>  <SCORE.SYSTEM>
-2.31513

>  <SCORE.SYSTEM.CONST>
0

>  <SCORE.SYSTEM.DIHEDRAL>
3.39298

>  <SCORE.SYSTEM.POLAR>
-3.82335

>  <SCORE.SYSTEM.REPUL>
0.0313481

>  <SCORE.SYSTEM.VDW>
8.83103

>  <SCORE.SYSTEM.norm>
-0.092605

>  <SCORE.heavy>
25

>  <SCORE.norm>
-1.78504

$$$$
F3406-2099
  rDOCK(R)          3D
libRbt.so/2013.1/901 2013/11/27
 26 27  0  0  0  0  0  0  0  0999 V2000
  -15.1457   17.9738  -17.5618 C   0  0  0  0  0  0
  -16.0714   19.0234  -17.2644 O   0  0  0  0  0  0
  -17.3103   18.8899  -17.8140 C   0  0  0  0  0  0
  -17.6827   17.9290  -18.4779 O   0  0  0  0  0  0
  -18.2344   20.0468  -17.4384 C   0  0  0  0  0  0
  -19.5648   19.6624  -16.9918 N   0  0  0  0  0  0
  -19.7654   18.5285  -16.2337 C   0  0  0  0  0  0
  -18.8010   17.8473  -15.8907 O   0  0  0  0  0  0
  -21.1408   18.2129  -15.8692 C   0  0  0  0  0  0
  -21.6687   18.0640  -14.5936 C   0  0  0  0  0  0
  -23.0832   17.8559  -14.6238 C   0  0  0  0  0  0
  -23.5829   17.8164  -15.9050 C   0  0  0  0  0  0
  -22.3517   17.9989  -17.0710 S   0  0  0  0  0  0
  -20.9623   18.1764  -13.3800 N   0  0  0  0  0  0
  -19.5558   18.6087  -13.3812 C   0  0  0  0  0  0
  -21.7377   17.9917  -11.8768 S   0  0  0  0  0  0
  -22.9733   17.2723  -12.0973 O   0  0  0  0  0  0
  -20.7822   17.5474  -10.8778 O   0  0  0  0  0  0
  -22.1548   19.6805  -11.4769 C   0  0  0  0  0  0
  -21.5115   20.7412  -12.1216 C   0  0  0  0  0  0
  -21.7341   22.0475  -11.6759 C   0  0  0  0  0  0
  -22.5847   22.2798  -10.5926 C   0  0  0  0  0  0
  -22.7780   23.8776   -9.9848 Cl  0  0  0  0  0  0
  -23.2639   21.2242   -9.9868 C   0  0  0  0  0  0
  -23.0706   19.9222  -10.4492 C   0  0  0  0  0  0
  -20.3703   20.1802  -17.3188 H   0  0  0  0  0  0
  1  2  1  0  0  0
  2  3  1  0  0  0
  3  4  2  0  0  0
  3  5  1  0  0  0
  5  6  1  0  0  0
  6  7  1  0  0  0
  6 26  1  0  0  0
  7  8  2  0  0  0
  7  9  1  0  0  0
  9 10  2  0  0  0
  9 13  1  0  0  0
 10 11  1  0  0  0
 10 14  1  0  0  0
 11 12  2  0  0  0
 12 13  1  0  0  0
 14 15  1  0  0  0
 14 16  1  0  0  0
 16 17  2  0  0  0
 16 18  2  0  0  0
 16 19  1  0  0  0
 19 20  2  0  0  0
 19 25  1  0  0  0
 20 21  1  0  0  0
 21 22  2  0  0  0
 22 23  1  0  0  0
 22 24  1  0  0  0
 24 25  2  0  0  0
M  END
>  <CHROM.0>
-61.05788978,-73.63553530,-7.57292787,64.84723883,168.35816745,-66.26219824
69.10025093,-165.43930813

>  <CHROM.1>
3.16691069,-133.14214790,36.33425448,-121.79854756,6.02231762,20.07754601
-18.25610680,-20.84629603,19.26710200,-14.00380017,-0.89361434,0.58760621
0.74358011

>  <Name>
F3406-2099

>  <RI>
2.62373e+07

>  <Rbt.Current_Directory>
/home/adria/Escritorio/rDock_CMTR_LC/2pxcA_model/inputs_sah

>  <Rbt.Executable>
rbdock ($Id: //depot/dev/client3/rdock/2013.1/src/exe/rbdock.cxx#4 $)

>  <Rbt.Library>
libRbt.so (2013.1, Build901 2013/11/27)

>  <Rbt.Parameter_File>
/home/adria/Escritorio/rDock_2013.1_src/data/scripts/dock.prm

>  <Rbt.Receptor>
sah_rdock.prm

>  <SCORE>
-50.4837

>  <SCORE.INTER>
-13.1784

>  <SCORE.INTER.CONST>
1

>  <SCORE.INTER.POLAR>
-1.73735

>  <SCORE.INTER.REPUL>
0

>  <SCORE.INTER.ROT>
7

>  <SCORE.INTER.VDW>
-19.6714

>  <SCORE.INTER.norm>
-0.527138

>  <SCORE.INTRA>
-35.528

>  <SCORE.INTRA.DIHEDRAL>
-82.4731

>  <SCORE.INTRA.DIHEDRAL.0>
96.5542

>  <SCORE.INTRA.POLAR>
0

>  <SCORE.INTRA.POLAR.0>
0

>  <SCORE.INTRA.REPUL>
0

>  <SCORE.INTRA.REPUL.0>
0

>  <SCORE.INTRA.VDW>
5.70855

>  <SCORE.INTRA.VDW.0>
-2.81757

>  <SCORE.INTRA.norm>
-1.42112

>  <SCORE.RESTR>
0

>  <SCORE.RESTR.CAVITY>
0

>  <SCORE.RESTR.norm>
0

>  <SCORE.SYSTEM>
-1.77728

>  <SCORE.SYSTEM.CONST>
0

>  <SCORE.SYSTEM.DIHEDRAL>
5.70869

>  <SCORE.SYSTEM.POLAR>
-4.11421

>  <SCORE.SYSTEM.REPUL>
0.0396507

>  <SCORE.SYSTEM.VDW>
9.15842

>  <SCORE.SYSTEM.norm>
-0.0710912

>  <SCORE.heavy>
25

>  <SCORE.norm>
-2.01935

$$$$
F3406-2099
  rDOCK(R)          3D
libRbt.so/2013.1/901 2013/11/27
 26 27  0  0  0  0  0  0  0  0999 V2000
  -21.3613   25.7825  -10.7581 C   0  0  0  0  0  0
  -22.6690   25.6104  -11.3124 O   0  0  0  0  0  0
  -22.8008   24.5915  -12.2064 C   0  0  0  0  0  0
  -21.9305   23.7671  -12.4629 O   0  0  0  0  0  0
  -24.2042   24.5302  -12.8066 C   0  0  0  0  0  0
  -24.5062   23.3252  -13.5642 N   0  0  0  0  0  0
  -25.3063   22.3321  -13.0403 C   0  0  0  0  0  0
  -25.8104   22.4799  -11.9286 O   0  0  0  0  0  0
  -25.5169   21.1497  -13.8659 C   0  0  0  0  0  0
  -24.9634   19.8873  -13.6988 C   0  0  0  0  0  0
  -25.4814   18.9492  -14.6457 C   0  0  0  0  0  0
  -26.3762   19.5221  -15.5197 C   0  0  0  0  0  0
  -26.5716   21.1902  -15.2232 S   0  0  0  0  0  0
  -24.0619   19.4988  -12.6884 N   0  0  0  0  0  0
  -23.6422   20.4652  -11.6612 C   0  0  0  0  0  0
  -23.5653   17.8811  -12.5105 S   0  0  0  0  0  0
  -22.9787   17.7362  -11.1961 O   0  0  0  0  0  0
  -24.6169   16.9876  -12.9624 O   0  0  0  0  0  0
  -22.2475   17.7753  -13.7097 C   0  0  0  0  0  0
  -22.4559   18.1852  -15.0300 C   0  0  0  0  0  0
  -21.4659   17.9392  -15.9861 C   0  0  0  0  0  0
  -20.2888   17.2831  -15.6187 C   0  0  0  0  0  0
  -19.1173   16.8942  -16.8171 Cl  0  0  0  0  0  0
  -20.0636   16.9231  -14.2912 C   0  0  0  0  0  0
  -21.0345   17.1960  -13.3272 C   0  0  0  0  0  0
  -24.0484   23.1659  -14.4524 H   0  0  0  0  0  0
  1  2  1  0  0  0
  2  3  1  0  0  0
  3  4  2  0  0  0
  3  5  1  0  0  0
  5  6  1  0  0  0
  6  7  1  0  0  0
  6 26  1  0  0  0
  7  8  2  0  0  0
  7  9  1  0  0  0
  9 10  2  0  0  0
  9 13  1  0  0  0
 10 11  1  0  0  0
 10 14  1  0  0  0
 11 12  2  0  0  0
 12 13  1  0  0  0
 14 15  1  0  0  0
 14 16  1  0  0  0
 16 17  2  0  0  0
 16 18  2  0  0  0
 16 19  1  0  0  0
 19 20  2  0  0  0
 19 25  1  0  0  0
 20 21  1  0  0  0
 21 22  2  0  0  0
 22 23  1  0  0  0
 22 24  1  0  0  0
 24 25  2  0  0  0
M  END
>  <CHROM.0>
-175.27174754,-73.86993675,73.20337305,-60.60027151,-30.93572855,-175.61111301
81.12199766,-158.78207549

>  <CHROM.1>
6.82068356,-168.44879118,104.26448471,105.81418896,1.28555835,-163.57820716
-51.70076971,-23.26039420,20.13648129,-13.61432437,-1.95833646,-0.00401011
-2.76098164

>  <Name>
F3406-2099

>  <RI>
2.62373e+07

>  <Rbt.Current_Directory>
/home/adria/Escritorio/rDock_CMTR_LC/2pxcA_model/inputs_sah

>  <Rbt.Executable>
rbdock ($Id: //depot/dev/client3/rdock/2013.1/src/exe/rbdock.cxx#4 $)

>  <Rbt.Library>
libRbt.so (2013.1, Build901 2013/11/27)

>  <Rbt.Parameter_File>
/home/adria/Escritorio/rDock_2013.1_src/data/scripts/dock.prm

>  <Rbt.Receptor>
sah_rdock.prm

>  <SCORE>
-52.5482

>  <SCORE.INTER>
-8.70018

>  <SCORE.INTER.CONST>
1

>  <SCORE.INTER.POLAR>
-1.63838

>  <SCORE.INTER.REPUL>
0.0164532

>  <SCORE.INTER.ROT>
7

>  <SCORE.INTER.VDW>
-15.6119

>  <SCORE.INTER.norm>
-0.348007

>  <SCORE.INTRA>
-36.8145

>  <SCORE.INTRA.DIHEDRAL>
-80.2932

>  <SCORE.INTRA.DIHEDRAL.0>
96.5542

>  <SCORE.INTRA.POLAR>
0

>  <SCORE.INTRA.POLAR.0>
0

>  <SCORE.INTRA.REPUL>
0

>  <SCORE.INTRA.REPUL.0>
0

>  <SCORE.INTRA.VDW>
3.33212

>  <SCORE.INTRA.VDW.0>
-2.81757

>  <SCORE.INTRA.norm>
-1.47258

>  <SCORE.RESTR>
0

>  <SCORE.RESTR.CAVITY>
0

>  <SCORE.RESTR.norm>
0

>  <SCORE.SYSTEM>
-7.03355

>  <SCORE.SYSTEM.CONST>
0

>  <SCORE.SYSTEM.DIHEDRAL>
6.52642

>  <SCORE.SYSTEM.POLAR>
-3.99722

>  <SCORE.SYSTEM.REPUL>
0.0400519

>  <SCORE.SYSTEM.VDW>
3.09352

>  <SCORE.SYSTEM.norm>
-0.281342

>  <SCORE.heavy>
25

>  <SCORE.norm>
-2.10193

$$$$
F3406-2099
  rDOCK(R)          3D
libRbt.so/2013.1/901 2013/11/27
 26 27  0  0  0  0  0  0  0  0999 V2000
  -25.7083   22.9934   -8.0294 C   0  0  0  0  0  0
  -25.2069   22.0627   -8.9934 O   0  0  0  0  0  0
  -25.0850   20.7764   -8.5629 C   0  0  0  0  0  0
  -25.4132   20.3749   -7.4521 O   0  0  0  0  0  0
  -24.5646   19.8492   -9.6597 C   0  0  0  0  0  0
  -23.6299   20.4545  -10.5964 N   0  0  0  0  0  0
  -22.2683   20.2902  -10.4556 C   0  0  0  0  0  0
  -21.8310   19.5863   -9.5472 O   0  0  0  0  0  0
  -21.4178   20.9682  -11.4256 C   0  0  0  0  0  0
  -20.5983   20.3913  -12.3866 C   0  0  0  0  0  0
  -19.9906   21.3750  -13.2281 C   0  0  0  0  0  0
  -20.3301   22.6588  -12.8683 C   0  0  0  0  0  0
  -21.3529   22.6846  -11.5038 S   0  0  0  0  0  0
  -20.4138   19.0122  -12.6067 N   0  0  0  0  0  0
  -21.0751   18.0298  -11.7335 C   0  0  0  0  0  0
  -19.5781   18.4310  -13.9702 S   0  0  0  0  0  0
  -18.7010   19.4822  -14.4377 O   0  0  0  0  0  0
  -19.0713   17.0958  -13.7085 O   0  0  0  0  0  0
  -20.9008   18.2578  -15.1561 C   0  0  0  0  0  0
  -20.9475   19.0741  -16.2901 C   0  0  0  0  0  0
  -22.0760   19.0342  -17.1146 C   0  0  0  0  0  0
  -23.1433   18.1914  -16.7962 C   0  0  0  0  0  0
  -24.5700   18.2185  -17.7572 Cl  0  0  0  0  0  0
  -23.0700   17.3416  -15.6938 C   0  0  0  0  0  0
  -21.9321   17.3539  -14.8866 C   0  0  0  0  0  0
  -23.9748   21.0843  -11.3093 H   0  0  0  0  0  0
  1  2  1  0  0  0
  2  3  1  0  0  0
  3  4  2  0  0  0
  3  5  1  0  0  0
  5  6  1  0  0  0
  6  7  1  0  0  0
  6 26  1  0  0  0
  7  8  2  0  0  0
  7  9  1  0  0  0
  9 10  2  0  0  0
  9 13  1  0  0  0
 10 11  1  0  0  0
 10 14  1  0  0  0
 11 12  2  0  0  0
 12 13  1  0  0  0
 14 15  1  0  0  0
 14 16  1  0  0  0
 16 17  2  0  0  0
 16 18  2  0  0  0
 16 19  1  0  0  0
 19 20  2  0  0  0
 19 25  1  0  0  0
 20 21  1  0  0  0
 21 22  2  0  0  0
 22 23  1  0  0  0
 22 24  1  0  0  0
 24 25  2  0  0  0
M  END
>  <CHROM.0>
-63.71841563,61.11322183,-47.34353371,150.11739249,-31.69853907,56.31915475
-153.18789911,-166.14703311

>  <CHROM.1>
2.65716888,33.19631703,98.41428827,-113.80460788,-2.98953963,23.48342301
113.14989239,-22.11450220,19.75786152,-12.78940254,1.87527189,0.02178520
1.14208903

>  <Name>
F3406-2099

>  <RI>
2.62373e+07

>  <Rbt.Current_Directory>
/home/adria/Escritorio/rDock_CMTR_LC/2pxcA_model/inputs_sah

>  <Rbt.Executable>
rbdock ($Id: //depot/dev/client3/rdock/2013.1/src/exe/rbdock.cxx#4 $)

>  <Rbt.Library>
libRbt.so (2013.1, Build901 2013/11/27)

>  <Rbt.Parameter_File>
/home/adria/Escritorio/rDock_2013.1_src/data/scripts/dock.prm

>  <Rbt.Receptor>
sah_rdock.prm

>  <SCORE>
-52.1869

>  <SCORE.INTER>
-12.5081

>  <SCORE.INTER.CONST>
1

>  <SCORE.INTER.POLAR>
-1.75175

>  <SCORE.INTER.REPUL>
0

>  <SCORE.INTER.ROT>
7

>  <SCORE.INTER.VDW>
-18.9521

>  <SCORE.INTER.norm>
-0.500322

>  <SCORE.INTRA>
-36.2398

>  <SCORE.INTRA.DIHEDRAL>
-81.6137

>  <SCORE.INTRA.DIHEDRAL.0>
96.5542

>  <SCORE.INTRA.POLAR>
0

>  <SCORE.INTRA.POLAR.0>
0

>  <SCORE.INTRA.REPUL>
0

>  <SCORE.INTRA.REPUL.0>
0

>  <SCORE.INTRA.VDW>
4.567

>  <SCORE.INTRA.VDW.0>
-2.81757

>  <SCORE.INTRA.norm>
-1.44959

>  <SCORE.RESTR>
0.361547

>  <SCORE.RESTR.CAVITY>
0.361547

>  <SCORE.RESTR.norm>
0.0144619

>  <SCORE.SYSTEM>
-3.8006

>  <SCORE.SYSTEM.CONST>
0

>  <SCORE.SYSTEM.DIHEDRAL>
9.1224

>  <SCORE.SYSTEM.POLAR>
-3.7196

>  <SCORE.SYSTEM.VDW>
4.28483

>  <SCORE.SYSTEM.norm>
-0.152024

>  <SCORE.heavy>
25

>  <SCORE.norm>
-2.08748

$$$$
F3406-2099
  rDOCK(R)          3D
libRbt.so/2013.1/901 2013/11/27
 26 27  0  0  0  0  0  0  0  0999 V2000
  -15.7049   15.2600  -17.0504 C   0  0  0  0  0  0
  -16.3987   16.3686  -16.4704 O   0  0  0  0  0  0
  -16.1892   17.5737  -17.0693 C   0  0  0  0  0  0
  -15.4688   17.7560  -18.0444 O   0  0  0  0  0  0
  -17.0286   18.6835  -16.4391 C   0  0  0  0  0  0
  -18.4404   18.3762  -16.2673 N   0  0  0  0  0  0
  -19.3892   19.3753  -16.2154 C   0  0  0  0  0  0
  -19.0467   20.5476  -16.3574 O   0  0  0  0  0  0
  -20.7709   18.9631  -16.0036 C   0  0  0  0  0  0
  -21.3568   18.5306  -14.8213 C   0  0  0  0  0  0
  -22.7613   18.3086  -14.9732 C   0  0  0  0  0  0
  -23.1955   18.5397  -16.2581 C   0  0  0  0  0  0
  -21.9140   18.9937  -17.2877 S   0  0  0  0  0  0
  -20.7150   18.3892  -13.5753 N   0  0  0  0  0  0
  -19.2915   18.7341  -13.4341 C   0  0  0  0  0  0
  -21.5814   17.9896  -12.1665 S   0  0  0  0  0  0
  -22.7254   17.1946  -12.5565 O   0  0  0  0  0  0
  -20.6673   17.5292  -11.1366 O   0  0  0  0  0  0
  -22.1810   19.5885  -11.6470 C   0  0  0  0  0  0
  -21.9387   20.7238  -12.4261 C   0  0  0  0  0  0
  -22.2717   21.9837  -11.9196 C   0  0  0  0  0  0
  -22.8319   22.0977  -10.6452 C   0  0  0  0  0  0
  -23.1478   23.6553   -9.9865 Cl  0  0  0  0  0  0
  -23.1194   20.9595   -9.8938 C   0  0  0  0  0  0
  -22.8193   19.6980  -10.4085 C   0  0  0  0  0  0
  -18.7256   17.4220  -16.0883 H   0  0  0  0  0  0
  1  2  1  0  0  0
  2  3  1  0  0  0
  3  4  2  0  0  0
  3  5  1  0  0  0
  5  6  1  0  0  0
  6  7  1  0  0  0
  6 26  1  0  0  0
  7  8  2  0  0  0
  7  9  1  0  0  0
  9 10  2  0  0  0
  9 13  1  0  0  0
 10 11  1  0  0  0
 10 14  1  0  0  0
 11 12  2  0  0  0
 12 13  1  0  0  0
 14 15  1  0  0  0
 14 16  1  0  0  0
 16 17  2  0  0  0
 16 18  2  0  0  0
 16 19  1  0  0  0
 19 20  2  0  0  0
 19 25  1  0  0  0
 20 21  1  0  0  0
 21 22  2  0  0  0
 22 23  1  0  0  0
 22 24  1  0  0  0
 24 25  2  0  0  0
M  END
>  <CHROM.0>
37.16948872,63.35116828,73.91158377,-62.01178400,-31.40347509,53.21314271
-50.04677854,-161.63958721

>  <CHROM.1>
0.20498801,-48.95070387,-154.61287949,75.18250460,1.01261648,29.49590332
3.55047539,-20.60786239,19.16306582,-13.99995868,-0.68804554,-0.67905055
1.66114486

>  <Name>
F3406-2099

>  <RI>
2.62373e+07

>  <Rbt.Current_Directory>
/home/adria/Escritorio/rDock_CMTR_LC/2pxcA_model/inputs_sah

>  <Rbt.Executable>
rbdock ($Id: //depot/dev/client3/rdock/2013.1/src/exe/rbdock.cxx#4 $)

>  <Rbt.Library>
libRbt.so (2013.1, Build901 2013/11/27)

>  <Rbt.Parameter_File>
/home/adria/Escritorio/rDock_2013.1_src/data/scripts/dock.prm

>  <Rbt.Receptor>
sah_rdock.prm

>  <SCORE>
-47.6087

>  <SCORE.INTER>
-8.55242

>  <SCORE.INTER.CONST>
1

>  <SCORE.INTER.POLAR>
-0.856884

>  <SCORE.INTER.REPUL>
0.0129308

>  <SCORE.INTER.ROT>
7

>  <SCORE.INTER.VDW>
-18.1037

>  <SCORE.INTER.norm>
-0.342097

>  <SCORE.INTRA>
-36.9159

>  <SCORE.INTRA.DIHEDRAL>
-80.8616

>  <SCORE.INTRA.DIHEDRAL.0>
96.5542

>  <SCORE.INTRA.POLAR>
0

>  <SCORE.INTRA.POLAR.0>
0

>  <SCORE.INTRA.REPUL>
0

>  <SCORE.INTRA.REPUL.0>
0

>  <SCORE.INTRA.VDW>
3.51488

>  <SCORE.INTRA.VDW.0>
-2.81757

>  <SCORE.INTRA.norm>
-1.47664

>  <SCORE.RESTR>
0

>  <SCORE.RESTR.CAVITY>
0

>  <SCORE.RESTR.norm>
0

>  <SCORE.SYSTEM>
-2.14038

>  <SCORE.SYSTEM.CONST>
0

>  <SCORE.SYSTEM.DIHEDRAL>
6.97564

>  <SCORE.SYSTEM.POLAR>
-3.29199

>  <SCORE.SYSTEM.REPUL>
0.13169

>  <SCORE.SYSTEM.VDW>
4.9061

>  <SCORE.SYSTEM.norm>
-0.0856154

>  <SCORE.heavy>
25

>  <SCORE.norm>
-1.90435

$$$$
F3406-2099
  rDOCK(R)          3D
libRbt.so/2013.1/901 2013/11/27
 26 27  0  0  0  0  0  0  0  0999 V2000
  -20.7888   17.4318  -14.0341 C   0  0  0  0  0  0
  -21.5661   17.4015  -12.8334 O   0  0  0  0  0  0
  -22.9111   17.2735  -13.0050 C   0  0  0  0  0  0
  -23.4653   17.0835  -14.0818 O   0  0  0  0  0  0
  -23.6665   17.3072  -11.6777 C   0  0  0  0  0  0
  -23.4364   18.4880  -10.8592 N   0  0  0  0  0  0
  -24.3610   19.5090  -10.7998 C   0  0  0  0  0  0
  -25.4202   19.4073  -11.4158 O   0  0  0  0  0  0
  -24.0176   20.6636   -9.9794 C   0  0  0  0  0  0
  -23.8470   21.9784  -10.3921 C   0  0  0  0  0  0
  -23.6144   22.8570   -9.2880 C   0  0  0  0  0  0
  -23.5786   22.1923   -8.0839 C   0  0  0  0  0  0
  -23.7941   20.5121   -8.2814 S   0  0  0  0  0  0
  -23.9601   22.4601  -11.7110 N   0  0  0  0  0  0
  -24.3569   21.5512  -12.7980 C   0  0  0  0  0  0
  -23.8176   24.1172  -12.0701 S   0  0  0  0  0  0
  -23.9183   24.2732  -13.5049 O   0  0  0  0  0  0
  -24.6561   24.8923  -11.1733 O   0  0  0  0  0  0
  -22.1254   24.4421  -11.6045 C   0  0  0  0  0  0
  -21.1546   23.4424  -11.7174 C   0  0  0  0  0  0
  -19.8781   23.6674  -11.1934 C   0  0  0  0  0  0
  -19.5878   24.8772  -10.5585 C   0  0  0  0  0  0
  -18.0478   25.1112   -9.8281 Cl  0  0  0  0  0  0
  -20.5428   25.8903  -10.4946 C   0  0  0  0  0  0
  -21.8078   25.6830  -11.0452 C   0  0  0  0  0  0
  -22.5440   18.6098  -10.3981 H   0  0  0  0  0  0
  1  2  1  0  0  0
  2  3  1  0  0  0
  3  4  2  0  0  0
  3  5  1  0  0  0
  5  6  1  0  0  0
  6  7  1  0  0  0
  6 26  1  0  0  0
  7  8  2  0  0  0
  7  9  1  0  0  0
  9 10  2  0  0  0
  9 13  1  0  0  0
 10 11  1  0  0  0
 10 14  1  0  0  0
 11 12  2  0  0  0
 12 13  1  0  0  0
 14 15  1  0  0  0
 14 16  1  0  0  0
 16 17  2  0  0  0
 16 18  2  0  0  0
 16 19  1  0  0  0
 19 20  2  0  0  0
 19 25  1  0  0  0
 20 21  1  0  0  0
 21 22  2  0  0  0
 22 23  1  0  0  0
 22 24  1  0  0  0
 24 25  2  0  0  0
M  END
>  <CHROM.0>
171.37918980,-168.56052585,-11.45779218,63.02433861,31.92166621,60.13879451
-156.10390446,-160.93630829

>  <CHROM.1>
5.87001456,56.25796536,102.18491009,117.80017730,3.18138363,177.36993052
31.02655876,-22.61689531,21.86499980,-11.18112665,-1.94516356,0.16667707
0.28674919

>  <Name>
F3406-2099

>  <RI>
2.62373e+07

>  <Rbt.Current_Directory>
/home/adria/Escritorio/rDock_CMTR_LC/2pxcA_model/inputs_sah

>  <Rbt.Executable>
rbdock ($Id: //depot/dev/client3/rdock/2013.1/src/exe/rbdock.cxx#4 $)

>  <Rbt.Library>
libRbt.so (2013.1, Build901 2013/11/27)

>  <Rbt.Parameter_File>
/home/adria/Escritorio/rDock_2013.1_src/data/scripts/dock.prm

>  <Rbt.Receptor>
sah_rdock.prm

>  <SCORE>
-42.9998

>  <SCORE.INTER>
-11.6221

>  <SCORE.INTER.CONST>
1

>  <SCORE.INTER.POLAR>
-0.566193

>  <SCORE.INTER.REPUL>
0.0066321

>  <SCORE.INTER.ROT>
7

>  <SCORE.INTER.VDW>
-22.1302

>  <SCORE.INTER.norm>
-0.464883

>  <SCORE.INTRA>
-37.5241

>  <SCORE.INTRA.DIHEDRAL>
-81.8973

>  <SCORE.INTRA.DIHEDRAL.0>
96.5542

>  <SCORE.INTRA.POLAR>
0

>  <SCORE.INTRA.POLAR.0>
0

>  <SCORE.INTRA.REPUL>
0

>  <SCORE.INTRA.REPUL.0>
0

>  <SCORE.INTRA.VDW>
3.42451

>  <SCORE.INTRA.VDW.0>
-2.81757

>  <SCORE.INTRA.norm>
-1.50097

>  <SCORE.RESTR>
0

>  <SCORE.RESTR.CAVITY>
0

>  <SCORE.RESTR.norm>
0

>  <SCORE.SYSTEM>
6.14642

>  <SCORE.SYSTEM.CONST>
0

>  <SCORE.SYSTEM.DIHEDRAL>
9.30308

>  <SCORE.SYSTEM.POLAR>
-4.01093

>  <SCORE.SYSTEM.VDW>
15.132

>  <SCORE.SYSTEM.norm>
0.245857

>  <SCORE.heavy>
25

>  <SCORE.norm>
-1.71999

$$$$
F3406-2099
  rDOCK(R)          3D
libRbt.so/2013.1/901 2013/11/27
 26 27  0  0  0  0  0  0  0  0999 V2000
  -26.2326   19.8957   -8.9637 C   0  0  0  0  0  0
  -25.5638   19.2446  -10.0480 O   0  0  0  0  0  0
  -24.4300   18.5658   -9.7188 C   0  0  0  0  0  0
  -24.0398   18.3666   -8.5739 O   0  0  0  0  0  0
  -23.7247   17.9934  -10.9470 C   0  0  0  0  0  0
  -22.9953   18.9597  -11.7540 N   0  0  0  0  0  0
  -21.6194   19.0354  -11.7103 C   0  0  0  0  0  0
  -20.9886   18.2467  -11.0090 O   0  0  0  0  0  0
  -20.9884   20.0624  -12.5295 C   0  0  0  0  0  0
  -20.4973   19.9352  -13.8221 C   0  0  0  0  0  0
  -20.0397   21.1858  -14.3433 C   0  0  0  0  0  0
  -20.1594   22.2112  -13.4339 C   0  0  0  0  0  0
  -20.7921   21.6679  -11.9463 S   0  0  0  0  0  0
  -20.4996   18.7633  -14.6037 N   0  0  0  0  0  0
  -21.0297   17.5071  -14.0503 C   0  0  0  0  0  0
  -20.0618   18.7874  -16.2478 S   0  0  0  0  0  0
  -21.1886   18.3063  -17.0169 O   0  0  0  0  0  0
  -19.4202   20.0492  -16.5711 O   0  0  0  0  0  0
  -18.7917   17.5344  -16.3005 C   0  0  0  0  0  0
  -17.4712   17.8490  -15.9661 C   0  0  0  0  0  0
  -16.4685   16.8971  -16.1739 C   0  0  0  0  0  0
  -16.7907   15.6515  -16.7177 C   0  0  0  0  0  0
  -15.5411   14.5208  -17.0639 Cl  0  0  0  0  0  0
  -18.1156   15.3238  -17.0006 C   0  0  0  0  0  0
  -19.1240   16.2585  -16.7643 C   0  0  0  0  0  0
  -23.5059   19.6524  -12.2864 H   0  0  0  0  0  0
  1  2  1  0  0  0
  2  3  1  0  0  0
  3  4  2  0  0  0
  3  5  1  0  0  0
  5  6  1  0  0  0
  6  7  1  0  0  0
  6 26  1  0  0  0
  7  8  2  0  0  0
  7  9  1  0  0  0
  9 10  2  0  0  0
  9 13  1  0  0  0
 10 11  1  0  0  0
 10 14  1  0  0  0
 11 12  2  0  0  0
 12 13  1  0  0  0
 14 15  1  0  0  0
 14 16  1  0  0  0
 16 17  2  0  0  0
 16 18  2  0  0  0
 16 19  1  0  0  0
 19 20  2  0  0  0
 19 25  1  0  0  0
 20 21  1  0  0  0
 21 22  2  0  0  0
 22 23  1  0  0  0
 22 24  1  0  0  0
 24 25  2  0  0  0
M  END
>  <CHROM.0>
178.32517577,-69.28243774,-47.44505732,-62.31544643,-29.43687311,-179.22900995
-72.41641549,-163.38837369

>  <CHROM.1>
7.91564394,75.51733403,104.42022916,-93.36099140,-1.55705083,-120.50921081
-84.07988731,-20.46572723,18.47064831,-13.87944982,2.91157601,0.81602114
-0.15784298

>  <Name>
F3406-2099

>  <RI>
2.62373e+07

>  <Rbt.Current_Directory>
/home/adria/Escritorio/rDock_CMTR_LC/2pxcA_model/inputs_sah

>  <Rbt.Executable>
rbdock ($Id: //depot/dev/client3/rdock/2013.1/src/exe/rbdock.cxx#4 $)

>  <Rbt.Library>
libRbt.so (2013.1, Build901 2013/11/27)

>  <Rbt.Parameter_File>
/home/adria/Escritorio/rDock_2013.1_src/data/scripts/dock.prm

>  <Rbt.Receptor>
sah_rdock.prm

>  <SCORE>
-50.3699

>  <SCORE.INTER>
-9.43392

>  <SCORE.INTER.CONST>
1

>  <SCORE.INTER.POLAR>
-1.61414

>  <SCORE.INTER.REPUL>
0.00825926

>  <SCORE.INTER.ROT>
7

>  <SCORE.INTER.VDW>
-16.3871

>  <SCORE.INTER.norm>
-0.377357

>  <SCORE.INTRA>
-35.6062

>  <SCORE.INTRA.DIHEDRAL>
-79.2629

>  <SCORE.INTRA.DIHEDRAL.0>
96.5542

>  <SCORE.INTRA.POLAR>
0

>  <SCORE.INTRA.POLAR.0>
0

>  <SCORE.INTRA.REPUL>
0

>  <SCORE.INTRA.REPUL.0>
0

>  <SCORE.INTRA.VDW>
4.02524

>  <SCORE.INTRA.VDW.0>
-2.81757

>  <SCORE.INTRA.norm>
-1.42425

>  <SCORE.RESTR>
0

>  <SCORE.RESTR.CAVITY>
0

>  <SCORE.RESTR.norm>
0

>  <SCORE.SYSTEM>
-5.32974

>  <SCORE.SYSTEM.CONST>
0

>  <SCORE.SYSTEM.DIHEDRAL>
5.3007

>  <SCORE.SYSTEM.POLAR>
-3.25761

>  <SCORE.SYSTEM.REPUL>
0.0312325

>  <SCORE.SYSTEM.VDW>
2.93961

>  <SCORE.SYSTEM.norm>
-0.21319

>  <SCORE.heavy>
25

>  <SCORE.norm>
-2.0148

$$$$
F3406-2099
  rDOCK(R)          3D
libRbt.so/2013.1/901 2013/11/27
 26 27  0  0  0  0  0  0  0  0999 V2000
  -18.0726   12.4978  -14.2665 C   0  0  0  0  0  0
  -16.8999   12.8697  -14.9968 O   0  0  0  0  0  0
  -17.1123   13.3128  -16.2670 C   0  0  0  0  0  0
  -18.2119   13.4128  -16.7997 O   0  0  0  0  0  0
  -15.8186   13.7618  -16.9439 C   0  0  0  0  0  0
  -15.5043   15.1763  -16.8121 N   0  0  0  0  0  0
  -16.0103   16.1072  -17.6943 C   0  0  0  0  0  0
  -16.7750   15.7467  -18.5870 O   0  0  0  0  0  0
  -15.6049   17.4930  -17.4962 C   0  0  0  0  0  0
  -16.4160   18.5824  -17.2075 C   0  0  0  0  0  0
  -15.6520   19.7697  -16.9804 C   0  0  0  0  0  0
  -14.3005   19.5645  -17.1354 C   0  0  0  0  0  0
  -13.9512   17.9560  -17.5821 S   0  0  0  0  0  0
  -17.8170   18.5638  -17.0612 N   0  0  0  0  0  0
  -18.5486   17.2883  -17.1157 C   0  0  0  0  0  0
  -18.6888   19.9652  -16.6478 S   0  0  0  0  0  0
  -17.7588   20.9197  -16.0848 O   0  0  0  0  0  0
  -19.5740   20.3373  -17.7370 O   0  0  0  0  0  0
  -19.7243   19.3671  -15.3227 C   0  0  0  0  0  0
  -21.1168   19.4440  -15.4213 C   0  0  0  0  0  0
  -21.8993   19.1242  -14.3076 C   0  0  0  0  0  0
  -21.2874   18.7413  -13.1118 C   0  0  0  0  0  0
  -22.2490   18.4451  -11.7162 Cl  0  0  0  0  0  0
  -19.9015   18.6159  -13.0340 C   0  0  0  0  0  0
  -19.1181   18.9022  -14.1524 C   0  0  0  0  0  0
  -14.8289   15.4755  -16.1205 H   0  0  0  0  0  0
  1  2  1  0  0  0
  2  3  1  0  0  0
  3  4  2  0  0  0
  3  5  1  0  0  0
  5  6  1  0  0  0
  6  7  1  0  0  0
  6 26  1  0  0  0
  7  8  2  0  0  0
  7  9  1  0  0  0
  9 10  2  0  0  0
  9 13  1  0  0  0
 10 11  1  0  0  0
 10 14  1  0  0  0
 11 12  2  0  0  0
 12 13  1  0  0  0
 14 15  1  0  0  0
 14 16  1  0  0  0
 16 17  2  0  0  0
 16 18  2  0  0  0
 16 19  1  0  0  0
 19 20  2  0  0  0
 19 25  1  0  0  0
 20 21  1  0  0  0
 21 22  2  0  0  0
 22 23  1  0  0  0
 22 24  1  0  0  0
 24 25  2  0  0  0
M  END
>  <CHROM.0>
-178.62333033,67.90747795,-165.38483068,61.10696772,168.08507486,-56.98427996
-37.67791427,-166.92126562

>  <CHROM.1>
0.29900880,-92.50459397,-86.19899410,-118.26151475,4.57637435,-18.28260328
-121.11610062,-17.99559032,17.56980278,-15.91494616,0.34831124,-0.64482484
2.94944184

>  <Name>
F3406-2099

>  <RI>
2.62373e+07

>  <Rbt.Current_Directory>
/home/adria/Escritorio/rDock_CMTR_LC/2pxcA_model/inputs_sah

>  <Rbt.Executable>
rbdock ($Id: //depot/dev/client3/rdock/2013.1/src/exe/rbdock.cxx#4 $)

>  <Rbt.Library>
libRbt.so (2013.1, Build901 2013/11/27)

>  <Rbt.Parameter_File>
/home/adria/Escritorio/rDock_2013.1_src/data/scripts/dock.prm

>  <Rbt.Receptor>
sah_rdock.prm

>  <SCORE>
-47.6892

>  <SCORE.INTER>
-10.375

>  <SCORE.INTER.CONST>
1

>  <SCORE.INTER.POLAR>
0

>  <SCORE.INTER.REPUL>
0.0130588

>  <SCORE.INTER.ROT>
7

>  <SCORE.INTER.VDW>
-22.8403

>  <SCORE.INTER.norm>
-0.415

>  <SCORE.INTRA>
-35.6541

>  <SCORE.INTRA.DIHEDRAL>
-81.8631

>  <SCORE.INTRA.DIHEDRAL.0>
96.5542

>  <SCORE.INTRA.POLAR>
0

>  <SCORE.INTRA.POLAR.0>
0

>  <SCORE.INTRA.REPUL>
0

>  <SCORE.INTRA.REPUL.0>
0

>  <SCORE.INTRA.VDW>
5.27749

>  <SCORE.INTRA.VDW.0>
-2.81757

>  <SCORE.INTRA.norm>
-1.42616

>  <SCORE.RESTR>
0

>  <SCORE.RESTR.CAVITY>
0

>  <SCORE.RESTR.norm>
0

>  <SCORE.SYSTEM>
-1.6601

>  <SCORE.SYSTEM.CONST>
0

>  <SCORE.SYSTEM.DIHEDRAL>
2.86358

>  <SCORE.SYSTEM.POLAR>
-3.50596

>  <SCORE.SYSTEM.VDW>
8.82838

>  <SCORE.SYSTEM.norm>
-0.066404

>  <SCORE.heavy>
25

>  <SCORE.norm>
-1.90757

$$$$
F3406-2099
  rDOCK(R)          3D
libRbt.so/2013.1/901 2013/11/27
 26 27  0  0  0  0  0  0  0  0999 V2000
  -20.6521   17.7817  -15.5185 C   0  0  0  0  0  0
  -21.7218   17.8741  -14.5730 O   0  0  0  0  0  0
  -21.4172   17.4985  -13.2998 C   0  0  0  0  0  0
  -20.3043   17.1544  -12.9178 O   0  0  0  0  0  0
  -22.6123   17.6343  -12.3581 C   0  0  0  0  0  0
  -22.6303   18.8398  -11.5434 N   0  0  0  0  0  0
  -23.6812   19.1139  -10.6941 C   0  0  0  0  0  0
  -24.6040   18.3083  -10.5880 O   0  0  0  0  0  0
  -23.6194   20.3656   -9.9501 C   0  0  0  0  0  0
  -23.7376   21.6564  -10.4479 C   0  0  0  0  0  0
  -23.7278   22.6329   -9.4032 C   0  0  0  0  0  0
  -23.5685   22.0707   -8.1577 C   0  0  0  0  0  0
  -23.4009   20.3757   -8.2447 S   0  0  0  0  0  0
  -23.9293   22.0162  -11.7963 N   0  0  0  0  0  0
  -24.1222   20.9754  -12.8184 C   0  0  0  0  0  0
  -24.1185   23.6402  -12.2675 S   0  0  0  0  0  0
  -24.2017   23.6793  -13.7113 O   0  0  0  0  0  0
  -25.1274   24.2809  -11.4430 O   0  0  0  0  0  0
  -22.5454   24.3380  -11.7936 C   0  0  0  0  0  0
  -21.3576   23.6455  -12.0468 C   0  0  0  0  0  0
  -20.1574   24.1325  -11.5204 C   0  0  0  0  0  0
  -20.1562   25.2939  -10.7444 C   0  0  0  0  0  0
  -18.6939   25.8341  -10.0167 Cl  0  0  0  0  0  0
  -21.3346   26.0091  -10.5385 C   0  0  0  0  0  0
  -22.5295   25.5451  -11.0892 C   0  0  0  0  0  0
  -21.9082   19.5375  -11.6679 H   0  0  0  0  0  0
  1  2  1  0  0  0
  2  3  1  0  0  0
  3  4  2  0  0  0
  3  5  1  0  0  0
  5  6  1  0  0  0
  6  7  1  0  0  0
  6 26  1  0  0  0
  7  8  2  0  0  0
  7  9  1  0  0  0
  9 10  2  0  0  0
  9 13  1  0  0  0
 10 11  1  0  0  0
 10 14  1  0  0  0
 11 12  2  0  0  0
 12 13  1  0  0  0
 14 15  1  0  0  0
 14 16  1  0  0  0
 16 17  2  0  0  0
 16 18  2  0  0  0
 16 19  1  0  0  0
 19 20  2  0  0  0
 19 25  1  0  0  0
 20 21  1  0  0  0
 21 22  2  0  0  0
 22 23  1  0  0  0
 22 24  1  0  0  0
 24 25  2  0  0  0
M  END
>  <CHROM.0>
-61.64656790,-70.85948892,-6.53927197,-142.36039675,-30.02239397,59.62478592
-155.74285817,-160.46526179

>  <CHROM.1>
3.28973233,-98.97663166,177.15650752,69.38749559,4.52680328,176.13133446
42.81165945,-22.48072671,21.80752985,-11.37695805,-1.75387073,0.59681680
0.37224090

>  <Name>
F3406-2099

>  <RI>
2.62373e+07

>  <Rbt.Current_Directory>
/home/adria/Escritorio/rDock_CMTR_LC/2pxcA_model/inputs_sah

>  <Rbt.Executable>
rbdock ($Id: //depot/dev/client3/rdock/2013.1/src/exe/rbdock.cxx#4 $)

>  <Rbt.Library>
libRbt.so (2013.1, Build901 2013/11/27)

>  <Rbt.Parameter_File>
/home/adria/Escritorio/rDock_2013.1_src/data/scripts/dock.prm

>  <Rbt.Receptor>
sah_rdock.prm

>  <SCORE>
-54.1557

>  <SCORE.INTER>
-12.5727

>  <SCORE.INTER.CONST>
1

>  <SCORE.INTER.POLAR>
-0.824621

>  <SCORE.INTER.REPUL>
0

>  <SCORE.INTER.ROT>
7

>  <SCORE.INTER.VDW>
-22.169

>  <SCORE.INTER.norm>
-0.502908

>  <SCORE.INTRA>
-37.5348

>  <SCORE.INTRA.DIHEDRAL>
-80.947

>  <SCORE.INTRA.DIHEDRAL.0>
96.5542

>  <SCORE.INTRA.POLAR>
0

>  <SCORE.INTRA.POLAR.0>
0

>  <SCORE.INTRA.REPUL>
0

>  <SCORE.INTRA.REPUL.0>
0

>  <SCORE.INTRA.VDW>
2.93874

>  <SCORE.INTRA.VDW.0>
-2.81757

>  <SCORE.INTRA.norm>
-1.50139

>  <SCORE.RESTR>
0

>  <SCORE.RESTR.CAVITY>
0

>  <SCORE.RESTR.norm>
0

>  <SCORE.SYSTEM>
-4.0482

>  <SCORE.SYSTEM.CONST>
0

>  <SCORE.SYSTEM.DIHEDRAL>
14.477

>  <SCORE.SYSTEM.POLAR>
-4.66286

>  <SCORE.SYSTEM.REPUL>
0.0344911

>  <SCORE.SYSTEM.VDW>
4.39456

>  <SCORE.SYSTEM.norm>
-0.161928

>  <SCORE.heavy>
25

>  <SCORE.norm>
-2.16623

$$$$
F3406-2099
  rDOCK(R)          3D
libRbt.so/2013.1/901 2013/11/27
 26 27  0  0  0  0  0  0  0  0999 V2000
  -21.9741   26.6893   -9.0094 C   0  0  0  0  0  0
  -22.5159   26.1030  -10.1967 O   0  0  0  0  0  0
  -21.6226   25.8635  -11.1964 C   0  0  0  0  0  0
  -20.4496   26.2196  -11.1883 O   0  0  0  0  0  0
  -22.2240   25.0141  -12.3145 C   0  0  0  0  0  0
  -22.7421   23.7181  -11.9031 N   0  0  0  0  0  0
  -22.0603   22.9279  -11.0023 C   0  0  0  0  0  0
  -21.0146   23.3384  -10.5024 O   0  0  0  0  0  0
  -22.6467   21.6320  -10.6849 C   0  0  0  0  0  0
  -22.2193   20.3800  -11.1066 C   0  0  0  0  0  0
  -22.9821   19.3280  -10.5095 C   0  0  0  0  0  0
  -23.9796   19.8009   -9.6884 C   0  0  0  0  0  0
  -24.0196   21.5056   -9.6576 S   0  0  0  0  0  0
  -21.1237   20.1132  -11.9510 N   0  0  0  0  0  0
  -20.2971   21.2189  -12.4603 C   0  0  0  0  0  0
  -20.6114   18.5225  -12.2710 S   0  0  0  0  0  0
  -19.3107   18.5907  -12.9005 O   0  0  0  0  0  0
  -20.8348   17.6862  -11.1053 O   0  0  0  0  0  0
  -21.7893   18.0072  -13.5091 C   0  0  0  0  0  0
  -22.7824   17.0738  -13.1978 C   0  0  0  0  0  0
  -23.5856   16.5634  -14.2220 C   0  0  0  0  0  0
  -23.3850   16.9809  -15.5398 C   0  0  0  0  0  0
  -24.3081   16.2768  -16.8095 Cl  0  0  0  0  0  0
  -22.4287   17.9502  -15.8376 C   0  0  0  0  0  0
  -21.6471   18.4868  -14.8142 C   0  0  0  0  0  0
  -23.5678   23.3447  -12.3532 H   0  0  0  0  0  0
  1  2  1  0  0  0
  2  3  1  0  0  0
  3  4  2  0  0  0
  3  5  1  0  0  0
  5  6  1  0  0  0
  6  7  1  0  0  0
  6 26  1  0  0  0
  7  8  2  0  0  0
  7  9  1  0  0  0
  9 10  2  0  0  0
  9 13  1  0  0  0
 10 11  1  0  0  0
 10 14  1  0  0  0
 11 12  2  0  0  0
 12 13  1  0  0  0
 14 15  1  0  0  0
 14 16  1  0  0  0
 16 17  2  0  0  0
 16 18  2  0  0  0
 16 19  1  0  0  0
 19 20  2  0  0  0
 19 25  1  0  0  0
 20 21  1  0  0  0
 21 22  2  0  0  0
 22 23  1  0  0  0
 22 24  1  0  0  0
 24 25  2  0  0  0
M  END
>  <CHROM.0>
-172.63956906,73.89826256,-12.55569541,69.95101413,39.66668268,59.91110845
-166.57883501,-51.28398916

>  <CHROM.1>
-6.86459852,-57.79658658,-41.68962454,105.92344635,0.82201380,-167.02511869
-108.37571505,-22.18861664,20.58375262,-12.24119562,1.09521453,-1.35858807
0.04936658

>  <Name>
F3406-2099

>  <RI>
2.62373e+07

>  <Rbt.Current_Directory>
/home/adria/Escritorio/rDock_CMTR_LC/2pxcA_model/inputs_sah

>  <Rbt.Executable>
rbdock ($Id: //depot/dev/client3/rdock/2013.1/src/exe/rbdock.cxx#4 $)

>  <Rbt.Library>
libRbt.so (2013.1, Build901 2013/11/27)

>  <Rbt.Parameter_File>
/home/adria/Escritorio/rDock_2013.1_src/data/scripts/dock.prm

>  <Rbt.Receptor>
sah_rdock.prm

>  <SCORE>
-37.4353

>  <SCORE.INTER>
-9.43395

>  <SCORE.INTER.CONST>
1

>  <SCORE.INTER.POLAR>
-1.54566

>  <SCORE.INTER.REPUL>
0

>  <SCORE.INTER.ROT>
7

>  <SCORE.INTER.VDW>
-16.5787

>  <SCORE.INTER.norm>
-0.377358

>  <SCORE.INTRA>
-36.657

>  <SCORE.INTRA.DIHEDRAL>
-79.9136

>  <SCORE.INTRA.DIHEDRAL.0>
96.5542

>  <SCORE.INTRA.POLAR>
0

>  <SCORE.INTRA.POLAR.0>
0

>  <SCORE.INTRA.REPUL>
0

>  <SCORE.INTRA.REPUL.0>
0

>  <SCORE.INTRA.VDW>
3.29981

>  <SCORE.INTRA.VDW.0>
-2.81757

>  <SCORE.INTRA.norm>
-1.46628

>  <SCORE.RESTR>
0

>  <SCORE.RESTR.CAVITY>
0

>  <SCORE.RESTR.norm>
0

>  <SCORE.SYSTEM>
8.65567

>  <SCORE.SYSTEM.CONST>
0

>  <SCORE.SYSTEM.DIHEDRAL>
10.08

>  <SCORE.SYSTEM.POLAR>
-3.24432

>  <SCORE.SYSTEM.REPUL>
0.00847755

>  <SCORE.SYSTEM.VDW>
14.604

>  <SCORE.SYSTEM.norm>
0.346227

>  <SCORE.heavy>
25

>  <SCORE.norm>
-1.49741

$$$$
F3406-2099
  rDOCK(R)          3D
libRbt.so/2013.1/901 2013/11/27
 26 27  0  0  0  0  0  0  0  0999 V2000
  -16.8147   12.3074  -13.8478 C   0  0  0  0  0  0
  -16.6243   13.1787  -14.9665 O   0  0  0  0  0  0
  -15.6679   12.7944  -15.8568 C   0  0  0  0  0  0
  -15.0288   11.7503  -15.7918 O   0  0  0  0  0  0
  -15.5309   13.7801  -17.0157 C   0  0  0  0  0  0
  -15.5641   15.1868  -16.6451 N   0  0  0  0  0  0
  -15.9126   16.1594  -17.5580 C   0  0  0  0  0  0
  -16.2422   15.8346  -18.6972 O   0  0  0  0  0  0
  -15.8790   17.5411  -17.0957 C   0  0  0  0  0  0
  -16.8050   18.1900  -16.2898 C   0  0  0  0  0  0
  -16.3860   19.5169  -15.9596 C   0  0  0  0  0  0
  -15.1863   19.8516  -16.5439 C   0  0  0  0  0  0
  -14.5782   18.5858  -17.5117 S   0  0  0  0  0  0
  -17.9874   17.6340  -15.7634 N   0  0  0  0  0  0
  -18.3449   16.2385  -16.0634 C   0  0  0  0  0  0
  -18.9449   18.4774  -14.6378 S   0  0  0  0  0  0
  -18.9527   17.7222  -13.4038 O   0  0  0  0  0  0
  -18.5971   19.8870  -14.6492 O   0  0  0  0  0  0
  -20.5667   18.3401  -15.3705 C   0  0  0  0  0  0
  -21.5809   17.6313  -14.7197 C   0  0  0  0  0  0
  -22.7873   17.3975  -15.3865 C   0  0  0  0  0  0
  -22.9650   17.8635  -16.6913 C   0  0  0  0  0  0
  -24.4117   17.4883  -17.5434 Cl  0  0  0  0  0  0
  -21.9709   18.6143  -17.3165 C   0  0  0  0  0  0
  -20.7781   18.8784  -16.6428 C   0  0  0  0  0  0
  -15.2364   15.4701  -15.7307 H   0  0  0  0  0  0
  1  2  1  0  0  0
  2  3  1  0  0  0
  3  4  2  0  0  0
  3  5  1  0  0  0
  5  6  1  0  0  0
  6  7  1  0  0  0
  6 26  1  0  0  0
  7  8  2  0  0  0
  7  9  1  0  0  0
  9 10  2  0  0  0
  9 13  1  0  0  0
 10 11  1  0  0  0
 10 14  1  0  0  0
 11 12  2  0  0  0
 12 13  1  0  0  0
 14 15  1  0  0  0
 14 16  1  0  0  0
 16 17  2  0  0  0
 16 18  2  0  0  0
 16 19  1  0  0  0
 19 20  2  0  0  0
 19 25  1  0  0  0
 20 21  1  0  0  0
 21 22  2  0  0  0
 22 23  1  0  0  0
 22 24  1  0  0  0
 24 25  2  0  0  0
M  END
>  <CHROM.0>
-178.27166867,-72.37012137,110.34740979,62.07727757,-30.85717396,-58.76053858
-36.56093718,-162.93281090

>  <CHROM.1>
3.59136319,42.52442355,-157.30003482,-76.62034913,-0.49334316,-116.98357297
115.44168500,-18.31620962,16.94950921,-16.12342422,0.41101856,-0.05169007
3.02744085

>  <Name>
F3406-2099

>  <RI>
2.62373e+07

>  <Rbt.Current_Directory>
/home/adria/Escritorio/rDock_CMTR_LC/2pxcA_model/inputs_sah

>  <Rbt.Executable>
rbdock ($Id: //depot/dev/client3/rdock/2013.1/src/exe/rbdock.cxx#4 $)

>  <Rbt.Library>
libRbt.so (2013.1, Build901 2013/11/27)

>  <Rbt.Parameter_File>
/home/adria/Escritorio/rDock_2013.1_src/data/scripts/dock.prm

>  <Rbt.Receptor>
sah_rdock.prm

>  <SCORE>
-57.5523

>  <SCORE.INTER>
-14.0883

>  <SCORE.INTER.CONST>
1

>  <SCORE.INTER.POLAR>
-0.998894

>  <SCORE.INTER.REPUL>
0

>  <SCORE.INTER.ROT>
7

>  <SCORE.INTER.VDW>
-23.092

>  <SCORE.INTER.norm>
-0.56353

>  <SCORE.INTRA>
-36.4116

>  <SCORE.INTRA.DIHEDRAL>
-80.4829

>  <SCORE.INTRA.DIHEDRAL.0>
96.5542

>  <SCORE.INTRA.POLAR>
0

>  <SCORE.INTRA.POLAR.0>
0

>  <SCORE.INTRA.REPUL>
0

>  <SCORE.INTRA.REPUL.0>
0

>  <SCORE.INTRA.VDW>
3.8299

>  <SCORE.INTRA.VDW.0>
-2.81757

>  <SCORE.INTRA.norm>
-1.45646

>  <SCORE.RESTR>
0

>  <SCORE.RESTR.CAVITY>
0

>  <SCORE.RESTR.norm>
0

>  <SCORE.SYSTEM>
-7.05249

>  <SCORE.SYSTEM.CONST>
0

>  <SCORE.SYSTEM.DIHEDRAL>
9.18963

>  <SCORE.SYSTEM.POLAR>
-4.58218

>  <SCORE.SYSTEM.REPUL>
0.0373913

>  <SCORE.SYSTEM.VDW>
3.74514

>  <SCORE.SYSTEM.norm>
-0.2821

>  <SCORE.heavy>
25

>  <SCORE.norm>
-2.30209

$$$$
F3406-2099
  rDOCK(R)          3D
libRbt.so/2013.1/901 2013/11/27
 26 27  0  0  0  0  0  0  0  0999 V2000
  -16.8400   12.6060  -12.9845 C   0  0  0  0  0  0
  -16.9228   13.2589  -14.2549 O   0  0  0  0  0  0
  -15.8765   13.0410  -15.0989 C   0  0  0  0  0  0
  -14.9370   12.2872  -14.8707 O   0  0  0  0  0  0
  -16.0409   13.7840  -16.4234 C   0  0  0  0  0  0
  -15.6321   15.1804  -16.4100 N   0  0  0  0  0  0
  -16.0912   16.0697  -17.3582 C   0  0  0  0  0  0
  -16.8935   15.6911  -18.2096 O   0  0  0  0  0  0
  -15.5924   17.4367  -17.2775 C   0  0  0  0  0  0
  -16.3292   18.6012  -17.1069 C   0  0  0  0  0  0
  -15.4870   19.7490  -16.9714 C   0  0  0  0  0  0
  -14.1510   19.4379  -17.0769 C   0  0  0  0  0  0
  -13.9090   17.7750  -17.3681 S   0  0  0  0  0  0
  -17.7301   18.6925  -16.9909 N   0  0  0  0  0  0
  -18.5510   17.4714  -16.9717 C   0  0  0  0  0  0
  -18.5053   20.1783  -16.6966 S   0  0  0  0  0  0
  -17.4992   21.1329  -16.2851 O   0  0  0  0  0  0
  -19.4241   20.4807  -17.7795 O   0  0  0  0  0  0
  -19.5018   19.7876  -15.2682 C   0  0  0  0  0  0
  -18.9298   19.7520  -13.9930 C   0  0  0  0  0  0
  -19.6889   19.2835  -12.9165 C   0  0  0  0  0  0
  -21.0005   18.8502  -13.1238 C   0  0  0  0  0  0
  -21.8968   18.1821  -11.8161 Cl  0  0  0  0  0  0
  -21.5834   18.9364  -14.3870 C   0  0  0  0  0  0
  -20.8406   19.4341  -15.4580 C   0  0  0  0  0  0
  -14.9266   15.4878  -15.7531 H   0  0  0  0  0  0
  1  2  1  0  0  0
  2  3  1  0  0  0
  3  4  2  0  0  0
  3  5  1  0  0  0
  5  6  1  0  0  0
  6  7  1  0  0  0
  6 26  1  0  0  0
  7  8  2  0  0  0
  7  9  1  0  0  0
  9 10  2  0  0  0
  9 13  1  0  0  0
 10 11  1  0  0  0
 10 14  1  0  0  0
 11 12  2  0  0  0
 12 13  1  0  0  0
 14 15  1  0  0  0
 14 16  1  0  0  0
 16 17  2  0  0  0
 16 18  2  0  0  0
 16 19  1  0  0  0
 19 20  2  0  0  0
 19 25  1  0  0  0
 20 21  1  0  0  0
 21 22  2  0  0  0
 22 23  1  0  0  0
 22 24  1  0  0  0
 24 25  2  0  0  0
M  END
>  <CHROM.0>
-58.99372964,67.78047884,112.56088279,66.13499234,-29.78700047,63.83048628
81.83929364,-160.16245609

>  <CHROM.1>
4.05946723,82.79751712,-159.53307454,-120.32201921,3.40931384,-13.71544073
79.54751652,-17.67459038,17.59152852,-15.64746420,0.47379999,-0.63300311
2.68911084

>  <Name>
F3406-2099

>  <RI>
2.62373e+07

>  <Rbt.Current_Directory>
/home/adria/Escritorio/rDock_CMTR_LC/2pxcA_model/inputs_sah

>  <Rbt.Executable>
rbdock ($Id: //depot/dev/client3/rdock/2013.1/src/exe/rbdock.cxx#4 $)

>  <Rbt.Library>
libRbt.so (2013.1, Build901 2013/11/27)

>  <Rbt.Parameter_File>
/home/adria/Escritorio/rDock_2013.1_src/data/scripts/dock.prm

>  <Rbt.Receptor>
sah_rdock.prm

>  <SCORE>
-53.8793

>  <SCORE.INTER>
-11.9006

>  <SCORE.INTER.CONST>
1

>  <SCORE.INTER.POLAR>
0

>  <SCORE.INTER.REPUL>
0.0436347

>  <SCORE.INTER.ROT>
7

>  <SCORE.INTER.VDW>
-24.5187

>  <SCORE.INTER.norm>
-0.476023

>  <SCORE.INTRA>
-35.1678

>  <SCORE.INTRA.DIHEDRAL>
-82.7592

>  <SCORE.INTRA.DIHEDRAL.0>
96.5542

>  <SCORE.INTRA.POLAR>
0

>  <SCORE.INTRA.POLAR.0>
0

>  <SCORE.INTRA.REPUL>
0

>  <SCORE.INTRA.REPUL.0>
0

>  <SCORE.INTRA.VDW>
6.21181

>  <SCORE.INTRA.VDW.0>
-2.81757

>  <SCORE.INTRA.norm>
-1.40671

>  <SCORE.RESTR>
0

>  <SCORE.RESTR.CAVITY>
0

>  <SCORE.RESTR.norm>
0

>  <SCORE.SYSTEM>
-6.81092

>  <SCORE.SYSTEM.CONST>
0

>  <SCORE.SYSTEM.DIHEDRAL>
9.23235

>  <SCORE.SYSTEM.POLAR>
-4.25469

>  <SCORE.SYSTEM.VDW>
3.03884

>  <SCORE.SYSTEM.norm>
-0.272437

>  <SCORE.heavy>
25

>  <SCORE.norm>
-2.15517

$$$$
F3406-2099
  rDOCK(R)          3D
libRbt.so/2013.1/901 2013/11/27
 26 27  0  0  0  0  0  0  0  0999 V2000
  -21.4280   26.1815   -9.7324 C   0  0  0  0  0  0
  -22.2914   25.3741  -10.5383 O   0  0  0  0  0  0
  -22.4002   25.7484  -11.8433 C   0  0  0  0  0  0
  -21.9020   26.7590  -12.3264 O   0  0  0  0  0  0
  -23.1516   24.7133  -12.6784 C   0  0  0  0  0  0
  -22.3239   23.6823  -13.2859 N   0  0  0  0  0  0
  -21.4765   22.9047  -12.5256 C   0  0  0  0  0  0
  -21.4453   23.0526  -11.3054 O   0  0  0  0  0  0
  -20.6638   21.9255  -13.2360 C   0  0  0  0  0  0
  -20.6328   20.5501  -13.0475 C   0  0  0  0  0  0
  -19.7864   19.9011  -14.0002 C   0  0  0  0  0  0
  -19.1756   20.7901  -14.8543 C   0  0  0  0  0  0
  -19.5939   22.4038  -14.4942 S   0  0  0  0  0  0
  -21.3838   19.8201  -12.1056 N   0  0  0  0  0  0
  -22.2794   20.5208  -11.1717 C   0  0  0  0  0  0
  -21.4224   18.1191  -12.1215 S   0  0  0  0  0  0
  -20.1318   17.6475  -12.5742 O   0  0  0  0  0  0
  -22.0079   17.6253  -10.8879 O   0  0  0  0  0  0
  -22.6053   17.7980  -13.4189 C   0  0  0  0  0  0
  -22.1730   17.5064  -14.7161 C   0  0  0  0  0  0
  -23.1136   17.4229  -15.7472 C   0  0  0  0  0  0
  -24.4668   17.6383  -15.4762 C   0  0  0  0  0  0
  -25.6078   17.6330  -16.7639 Cl  0  0  0  0  0  0
  -24.8987   17.8771  -14.1727 C   0  0  0  0  0  0
  -23.9676   17.9287  -13.1351 C   0  0  0  0  0  0
  -22.2960   23.5937  -14.2934 H   0  0  0  0  0  0
  1  2  1  0  0  0
  2  3  1  0  0  0
  3  4  2  0  0  0
  3  5  1  0  0  0
  5  6  1  0  0  0
  6  7  1  0  0  0
  6 26  1  0  0  0
  7  8  2  0  0  0
  7  9  1  0  0  0
  9 10  2  0  0  0
  9 13  1  0  0  0
 10 11  1  0  0  0
 10 14  1  0  0  0
 11 12  2  0  0  0
 12 13  1  0  0  0
 14 15  1  0  0  0
 14 16  1  0  0  0
 16 17  2  0  0  0
 16 18  2  0  0  0
 16 19  1  0  0  0
 19 20  2  0  0  0
 19 25  1  0  0  0
 20 21  1  0  0  0
 21 22  2  0  0  0
 22 23  1  0  0  0
 22 24  1  0  0  0
 24 25  2  0  0  0
M  END
>  <CHROM.0>
173.09993341,-76.39878207,-165.89054642,-58.91726907,-29.23085415,-60.53751507
77.75111487,-162.36833898

>  <CHROM.1>
-5.72797278,-89.88956171,54.89905883,-121.65953456,-1.95240933,33.24072721
97.34474424,-22.05491397,20.71231420,-13.19320335,1.26668627,-0.63328038
0.19548325

>  <Name>
F3406-2099

>  <RI>
2.62373e+07

>  <Rbt.Current_Directory>
/home/adria/Escritorio/rDock_CMTR_LC/2pxcA_model/inputs_sah

>  <Rbt.Executable>
rbdock ($Id: //depot/dev/client3/rdock/2013.1/src/exe/rbdock.cxx#4 $)

>  <Rbt.Library>
libRbt.so (2013.1, Build901 2013/11/27)

>  <Rbt.Parameter_File>
/home/adria/Escritorio/rDock_2013.1_src/data/scripts/dock.prm

>  <Rbt.Receptor>
sah_rdock.prm

>  <SCORE>
-59.052

>  <SCORE.INTER>
-16.2065

>  <SCORE.INTER.CONST>
1

>  <SCORE.INTER.POLAR>
-2.8247

>  <SCORE.INTER.REPUL>
0.0759224

>  <SCORE.INTER.ROT>
7

>  <SCORE.INTER.VDW>
-19.3821

>  <SCORE.INTER.norm>
-0.64826

>  <SCORE.INTRA>
-36.3884

>  <SCORE.INTRA.DIHEDRAL>
-82.6536

>  <SCORE.INTRA.DIHEDRAL.0>
96.5542

>  <SCORE.INTRA.POLAR>
0

>  <SCORE.INTRA.POLAR.0>
0

>  <SCORE.INTRA.REPUL>
0

>  <SCORE.INTRA.REPUL.0>
0

>  <SCORE.INTRA.VDW>
4.93836

>  <SCORE.INTRA.VDW.0>
-2.81757

>  <SCORE.INTRA.norm>
-1.45554

>  <SCORE.RESTR>
0

>  <SCORE.RESTR.CAVITY>
0

>  <SCORE.RESTR.norm>
0

>  <SCORE.SYSTEM>
-6.45706

>  <SCORE.SYSTEM.CONST>
0

>  <SCORE.SYSTEM.DIHEDRAL>
6.86426

>  <SCORE.SYSTEM.POLAR>
-3.83862

>  <SCORE.SYSTEM.REPUL>
0.0440319

>  <SCORE.SYSTEM.VDW>
2.94195

>  <SCORE.SYSTEM.norm>
-0.258282

>  <SCORE.heavy>
25

>  <SCORE.norm>
-2.36208

$$$$
