F3406-2752
  rDOCK(R)          3D
libRbt.so/2013.1/901 2013/11/27
 31 34  0  0  0  0  0  0  0  0999 V2000
  -15.5063   20.1788  -16.4168 C   0  0  0  0  0  0
  -17.0914   18.6735  -16.7659 C   0  0  0  0  0  0
  -17.6998   17.9806  -18.1690 C   0  0  0  0  0  0
  -17.1942   16.5832  -18.3788 C   0  0  0  0  0  0
  -17.5731   15.6684  -17.2176 C   0  0  0  0  0  0
  -17.3179   16.2098  -15.8112 C   0  0  0  0  0  0
  -17.7672   17.6025  -15.6501 N   0  0  0  0  0  0
  -18.8099   17.8453  -14.6616 C   0  0  0  0  0  0
  -19.1619   16.9226  -13.9117 O   0  0  0  0  0  0
  -19.5636   19.1568  -14.3874 C   0  0  0  0  0  0
  -20.4386   19.4636  -13.3518 C   0  0  0  0  0  0
  -21.5764   18.6968  -13.0203 N   0  0  0  0  0  0
  -22.9282   18.8781  -13.4341 C   0  0  0  0  0  0
  -23.2804   20.6628  -13.4338 C   0  0  0  0  0  0
  -24.9003   21.2536  -12.9355 C   0  0  0  0  0  0
  -26.1281   20.1167  -12.3039 C   0  0  0  0  0  0
  -25.8148   18.3498  -12.3242 C   0  0  0  0  0  0
  -24.2035   17.7026  -12.8701 C   0  0  0  0  0  0
  -25.3243   22.6298  -13.2673 C   0  0  0  0  0  0
  -26.5084   22.8620  -13.4819 O   0  0  0  0  0  0
  -24.2456   23.6651  -13.4283 C   0  0  0  0  0  0
  -20.5156   20.7894  -12.8654 C   0  0  0  0  0  0
  -20.1929   21.8351  -13.7244 C   0  0  0  0  0  0
  -19.6431   21.5595  -14.9106 N   0  0  0  0  0  0
  -19.2589   20.2692  -15.1711 C   0  0  0  0  0  0
  -20.4309   23.1007  -13.3524 N   0  0  0  0  0  0
  -20.8792   23.3645  -12.0952 C   0  0  0  0  0  0
  -21.1222   24.7967  -11.7325 C   0  0  0  0  0  0
  -21.1247   22.3800  -11.1568 C   0  0  0  0  0  0
  -20.9511   21.0740  -11.5557 C   0  0  0  0  0  0
  -21.4028   17.7868  -12.6134 H   0  0  0  0  0  0
  1  2  1  0  0  0
  2  3  1  0  0  0
  2  7  1  0  0  0
  3  4  1  0  0  0
  4  5  1  0  0  0
  5  6  1  0  0  0
  6  7  1  0  0  0
  7  8  1  0  0  0
  8  9  2  0  0  0
  8 10  1  0  0  0
 10 11  2  0  0  0
 10 25  1  0  0  0
 11 12  1  0  0  0
 11 22  1  0  0  0
 12 13  1  0  0  0
 12 31  1  0  0  0
 13 14  2  0  0  0
 13 18  1  0  0  0
 14 15  1  0  0  0
 15 16  2  0  0  0
 15 19  1  0  0  0
 16 17  1  0  0  0
 17 18  2  0  0  0
 19 20  2  0  0  0
 19 21  1  0  0  0
 22 23  2  0  0  0
 22 30  1  0  0  0
 23 24  1  0  0  0
 23 26  1  0  0  0
 24 25  2  0  0  0
 26 27  2  0  0  0
 27 28  1  0  0  0
 27 29  1  0  0  0
 29 30  2  0  0  0
M  END
>  <CHROM.0>
-178.41694144,-72.89282032,-165.68980266,64.65391538,168.03922020,59.93151356
81.44971570,-170.49058033

>  <CHROM.1>
-171.22401151,-94.98711967,-39.66976336,148.00894227,-20.86719290,20.00026497
-14.09717623,-0.64439378,0.33222228,0.31864522

>  <Name>
F3406-2752

>  <RI>
2.05233e+07

>  <Rbt.Current_Directory>
/home/adria/Escritorio/rDock_CMTR_LC/2pxcA_model/inputs_sah

>  <Rbt.Executable>
rbdock ($Id: //depot/dev/client3/rdock/2013.1/src/exe/rbdock.cxx#4 $)

>  <Rbt.Library>
libRbt.so (2013.1, Build901 2013/11/27)

>  <Rbt.Parameter_File>
/home/adria/Escritorio/rDock_2013.1_src/data/scripts/dock.prm

>  <Rbt.Receptor>
sah_rdock.prm

>  <SCORE>
-201.679

>  <SCORE.INTER>
-11.9016

>  <SCORE.INTER.CONST>
1

>  <SCORE.INTER.POLAR>
-1.08876

>  <SCORE.INTER.REPUL>
0

>  <SCORE.INTER.ROT>
4

>  <SCORE.INTER.VDW>
-17.5998

>  <SCORE.INTER.norm>
-0.39672

>  <SCORE.INTRA>
-187.787

>  <SCORE.INTRA.DIHEDRAL>
7.41343

>  <SCORE.INTRA.DIHEDRAL.0>
7.41924

>  <SCORE.INTRA.POLAR>
0

>  <SCORE.INTRA.POLAR.0>
0

>  <SCORE.INTRA.REPUL>
0

>  <SCORE.INTRA.REPUL.0>
0

>  <SCORE.INTRA.VDW>
-191.494

>  <SCORE.INTRA.VDW.0>
189.203

>  <SCORE.INTRA.norm>
-6.25957

>  <SCORE.RESTR>
0

>  <SCORE.RESTR.CAVITY>
0

>  <SCORE.RESTR.norm>
0

>  <SCORE.SYSTEM>
-1.99023

>  <SCORE.SYSTEM.CONST>
0

>  <SCORE.SYSTEM.DIHEDRAL>
3.22528

>  <SCORE.SYSTEM.POLAR>
-3.7562

>  <SCORE.SYSTEM.REPUL>
0.0383436

>  <SCORE.SYSTEM.VDW>
8.97649

>  <SCORE.SYSTEM.norm>
-0.066341

>  <SCORE.heavy>
30

>  <SCORE.norm>
-6.72263

$$$$
F3406-2752
  rDOCK(R)          3D
libRbt.so/2013.1/901 2013/11/27
 31 34  0  0  0  0  0  0  0  0999 V2000
  -27.5846   19.5085  -12.4931 C   0  0  0  0  0  0
  -26.1466   20.6427  -11.2497 C   0  0  0  0  0  0
  -26.0690   22.2603  -10.8065 C   0  0  0  0  0  0
  -26.5135   22.4841   -9.3907 C   0  0  0  0  0  0
  -25.6560   21.6993   -8.4019 C   0  0  0  0  0  0
  -25.3956   20.2315   -8.7398 C   0  0  0  0  0  0
  -25.0213   20.0325  -10.1496 N   0  0  0  0  0  0
  -23.7016   19.4699  -10.4049 C   0  0  0  0  0  0
  -23.0247   19.0538   -9.4529 O   0  0  0  0  0  0
  -22.9977   19.2912  -11.7598 C   0  0  0  0  0  0
  -21.6537   19.4527  -12.0762 C   0  0  0  0  0  0
  -20.9076   20.6187  -11.8002 N   0  0  0  0  0  0
  -21.1124   21.9454  -12.2791 C   0  0  0  0  0  0
  -20.1662   23.0780  -11.2155 C   0  0  0  0  0  0
  -20.8344   24.6952  -10.8154 C   0  0  0  0  0  0
  -22.4837   25.1516  -11.3352 C   0  0  0  0  0  0
  -23.4226   24.0641  -12.4105 C   0  0  0  0  0  0
  -22.7619   22.4354  -12.8836 C   0  0  0  0  0  0
  -19.9531   25.7503  -10.2735 C   0  0  0  0  0  0
  -20.3709   26.8990  -10.1831 O   0  0  0  0  0  0
  -18.5337   25.3691   -9.9554 C   0  0  0  0  0  0
  -21.0706   18.6620  -13.0936 C   0  0  0  0  0  0
  -21.8856   18.1777  -14.1120 C   0  0  0  0  0  0
  -23.2111   18.3081  -14.0051 N   0  0  0  0  0  0
  -23.7318   18.7602  -12.8199 C   0  0  0  0  0  0
  -21.3353   17.5843  -15.1805 N   0  0  0  0  0  0
  -19.9945   17.3555  -15.2129 C   0  0  0  0  0  0
  -19.4354   16.6840  -16.4287 C   0  0  0  0  0  0
  -19.1393   17.7198  -14.1902 C   0  0  0  0  0  0
  -19.6874   18.3939  -13.1225 C   0  0  0  0  0  0
  -20.2778   20.5732  -11.0096 H   0  0  0  0  0  0
  1  2  1  0  0  0
  2  3  1  0  0  0
  2  7  1  0  0  0
  3  4  1  0  0  0
  4  5  1  0  0  0
  5  6  1  0  0  0
  6  7  1  0  0  0
  7  8  1  0  0  0
  8  9  2  0  0  0
  8 10  1  0  0  0
 10 11  2  0  0  0
 10 25  1  0  0  0
 11 12  1  0  0  0
 11 22  1  0  0  0
 12 13  1  0  0  0
 12 31  1  0  0  0
 13 14  2  0  0  0
 13 18  1  0  0  0
 14 15  1  0  0  0
 15 16  2  0  0  0
 15 19  1  0  0  0
 16 17  1  0  0  0
 17 18  2  0  0  0
 19 20  2  0  0  0
 19 21  1  0  0  0
 22 23  2  0  0  0
 22 30  1  0  0  0
 23 24  1  0  0  0
 23 26  1  0  0  0
 24 25  2  0  0  0
 26 27  2  0  0  0
 27 28  1  0  0  0
 27 29  1  0  0  0
 29 30  2  0  0  0
M  END
>  <CHROM.0>
-178.10274732,-74.77033788,-48.60233953,-63.38742640,-31.12568200,61.36301290
-36.34618751,-155.40253540

>  <CHROM.1>
142.11974495,-61.51094648,163.44459476,169.66239027,-22.49264503,20.88337110
-11.83397540,1.35877718,-0.38331207,-2.64849909

>  <Name>
F3406-2752

>  <RI>
2.05233e+07

>  <Rbt.Current_Directory>
/home/adria/Escritorio/rDock_CMTR_LC/2pxcA_model/inputs_sah

>  <Rbt.Executable>
rbdock ($Id: //depot/dev/client3/rdock/2013.1/src/exe/rbdock.cxx#4 $)

>  <Rbt.Library>
libRbt.so (2013.1, Build901 2013/11/27)

>  <Rbt.Parameter_File>
/home/adria/Escritorio/rDock_2013.1_src/data/scripts/dock.prm

>  <Rbt.Receptor>
sah_rdock.prm

>  <SCORE>
-209.369

>  <SCORE.INTER>
-16.5556

>  <SCORE.INTER.CONST>
1

>  <SCORE.INTER.POLAR>
-1.8828

>  <SCORE.INTER.REPUL>
0

>  <SCORE.INTER.ROT>
4

>  <SCORE.INTER.VDW>
-19.5541

>  <SCORE.INTER.norm>
-0.551853

>  <SCORE.INTRA>
-185.893

>  <SCORE.INTRA.DIHEDRAL>
12.1657

>  <SCORE.INTRA.DIHEDRAL.0>
7.41924

>  <SCORE.INTRA.POLAR>
0

>  <SCORE.INTRA.POLAR.0>
0

>  <SCORE.INTRA.REPUL>
0

>  <SCORE.INTRA.REPUL.0>
0

>  <SCORE.INTRA.VDW>
-191.975

>  <SCORE.INTRA.VDW.0>
189.203

>  <SCORE.INTRA.norm>
-6.19642

>  <SCORE.RESTR>
0

>  <SCORE.RESTR.CAVITY>
0

>  <SCORE.RESTR.norm>
0

>  <SCORE.SYSTEM>
-6.92139

>  <SCORE.SYSTEM.CONST>
0

>  <SCORE.SYSTEM.DIHEDRAL>
6.84672

>  <SCORE.SYSTEM.POLAR>
-3.99818

>  <SCORE.SYSTEM.REPUL>
0.0415425

>  <SCORE.SYSTEM.VDW>
3.04135

>  <SCORE.SYSTEM.norm>
-0.230713

>  <SCORE.heavy>
30

>  <SCORE.norm>
-6.97898

$$$$
F3406-2752
  rDOCK(R)          3D
libRbt.so/2013.1/901 2013/11/27
 31 34  0  0  0  0  0  0  0  0999 V2000
  -15.1173   16.4833  -18.8148 C   0  0  0  0  0  0
  -16.5582   14.8028  -18.8112 C   0  0  0  0  0  0
  -17.6581   14.2574  -19.9565 C   0  0  0  0  0  0
  -17.1772   13.0252  -20.6654 C   0  0  0  0  0  0
  -16.9276   11.8776  -19.6910 C   0  0  0  0  0  0
  -16.1291   12.2135  -18.4316 C   0  0  0  0  0  0
  -16.5806   13.4591  -17.7899 N   0  0  0  0  0  0
  -17.1005   13.3471  -16.4333 C   0  0  0  0  0  0
  -17.0066   12.2652  -15.8347 O   0  0  0  0  0  0
  -17.7676   14.4418  -15.5848 C   0  0  0  0  0  0
  -18.0775   15.7517  -15.9322 C   0  0  0  0  0  0
  -17.1484   16.6743  -16.4594 N   0  0  0  0  0  0
  -17.1831   18.0987  -16.4215 C   0  0  0  0  0  0
  -17.6344   18.6040  -14.7332 C   0  0  0  0  0  0
  -18.6817   20.0396  -14.4804 C   0  0  0  0  0  0
  -19.4025   20.8962  -15.8751 C   0  0  0  0  0  0
  -18.9470   20.4355  -17.5487 C   0  0  0  0  0  0
  -17.8466   19.0173  -17.8504 C   0  0  0  0  0  0
  -18.7619   20.6761  -13.1492 C   0  0  0  0  0  0
  -17.8946   20.4435  -12.3150 O   0  0  0  0  0  0
  -19.9805   21.5057  -12.8524 C   0  0  0  0  0  0
  -19.2058   16.3833  -15.3592 C   0  0  0  0  0  0
  -19.6420   15.9622  -14.1069 C   0  0  0  0  0  0
  -19.1114   14.8613  -13.5670 N   0  0  0  0  0  0
  -18.2799   14.0890  -14.3368 C   0  0  0  0  0  0
  -20.5881   16.6590  -13.4619 N   0  0  0  0  0  0
  -21.1986   17.7059  -14.0803 C   0  0  0  0  0  0
  -22.2523   18.4443  -13.3146 C   0  0  0  0  0  0
  -20.8850   18.1154  -15.3625 C   0  0  0  0  0  0
  -19.8645   17.4498  -16.0031 C   0  0  0  0  0  0
  -16.2414   16.3044  -16.7130 H   0  0  0  0  0  0
  1  2  1  0  0  0
  2  3  1  0  0  0
  2  7  1  0  0  0
  3  4  1  0  0  0
  4  5  1  0  0  0
  5  6  1  0  0  0
  6  7  1  0  0  0
  7  8  1  0  0  0
  8  9  2  0  0  0
  8 10  1  0  0  0
 10 11  2  0  0  0
 10 25  1  0  0  0
 11 12  1  0  0  0
 11 22  1  0  0  0
 12 13  1  0  0  0
 12 31  1  0  0  0
 13 14  2  0  0  0
 13 18  1  0  0  0
 14 15  1  0  0  0
 15 16  2  0  0  0
 15 19  1  0  0  0
 16 17  1  0  0  0
 17 18  2  0  0  0
 19 20  2  0  0  0
 19 21  1  0  0  0
 22 23  2  0  0  0
 22 30  1  0  0  0
 23 24  1  0  0  0
 23 26  1  0  0  0
 24 25  2  0  0  0
 26 27  2  0  0  0
 27 28  1  0  0  0
 27 29  1  0  0  0
 29 30  2  0  0  0
M  END
>  <CHROM.0>
-178.40309761,-73.11733671,79.39133749,71.39502865,-27.45422735,-40.78264806
-38.38436846,-158.05494123

>  <CHROM.1>
3.16854637,-155.85798708,45.23321550,17.58403990,-18.32651815,16.57157943
-15.98443575,-0.80943777,1.04994687,-0.07266630

>  <Name>
F3406-2752

>  <RI>
2.05233e+07

>  <Rbt.Current_Directory>
/home/adria/Escritorio/rDock_CMTR_LC/2pxcA_model/inputs_sah

>  <Rbt.Executable>
rbdock ($Id: //depot/dev/client3/rdock/2013.1/src/exe/rbdock.cxx#4 $)

>  <Rbt.Library>
libRbt.so (2013.1, Build901 2013/11/27)

>  <Rbt.Parameter_File>
/home/adria/Escritorio/rDock_2013.1_src/data/scripts/dock.prm

>  <Rbt.Receptor>
sah_rdock.prm

>  <SCORE>
-203.29

>  <SCORE.INTER>
-11.5328

>  <SCORE.INTER.CONST>
1

>  <SCORE.INTER.POLAR>
-0.966846

>  <SCORE.INTER.REPUL>
0

>  <SCORE.INTER.ROT>
4

>  <SCORE.INTER.VDW>
-17.6455

>  <SCORE.INTER.norm>
-0.384427

>  <SCORE.INTRA>
-185.63

>  <SCORE.INTRA.DIHEDRAL>
6.14539

>  <SCORE.INTRA.DIHEDRAL.0>
7.41924

>  <SCORE.INTRA.POLAR>
0

>  <SCORE.INTRA.POLAR.0>
0

>  <SCORE.INTRA.REPUL>
0

>  <SCORE.INTRA.REPUL.0>
0

>  <SCORE.INTRA.VDW>
-188.702

>  <SCORE.INTRA.VDW.0>
189.203

>  <SCORE.INTRA.norm>
-6.18765

>  <SCORE.RESTR>
0.0114256

>  <SCORE.RESTR.CAVITY>
0.0114256

>  <SCORE.RESTR.norm>
0.000380855

>  <SCORE.SYSTEM>
-6.13865

>  <SCORE.SYSTEM.CONST>
0

>  <SCORE.SYSTEM.DIHEDRAL>
8.92326

>  <SCORE.SYSTEM.POLAR>
-4.05823

>  <SCORE.SYSTEM.REPUL>
0.0387444

>  <SCORE.SYSTEM.VDW>
3.00397

>  <SCORE.SYSTEM.norm>
-0.204622

>  <SCORE.heavy>
30

>  <SCORE.norm>
-6.77632

$$$$
F3406-2752
  rDOCK(R)          3D
libRbt.so/2013.1/901 2013/11/27
 31 34  0  0  0  0  0  0  0  0999 V2000
  -18.1416   15.4917  -17.7949 C   0  0  0  0  0  0
  -16.7822   16.8668  -16.7172 C   0  0  0  0  0  0
  -15.2770   16.6397  -16.0087 C   0  0  0  0  0  0
  -14.1638   17.1963  -16.8473 C   0  0  0  0  0  0
  -14.3341   18.6942  -17.0846 C   0  0  0  0  0  0
  -15.7232   19.1627  -17.5175 C   0  0  0  0  0  0
  -16.8004   18.5546  -16.7192 N   0  0  0  0  0  0
  -17.6383   19.4634  -15.9476 C   0  0  0  0  0  0
  -17.5116   20.6868  -16.1049 O   0  0  0  0  0  0
  -18.7286   19.1036  -14.9254 C   0  0  0  0  0  0
  -19.9369   19.7427  -14.6727 C   0  0  0  0  0  0
  -20.0616   21.1174  -14.3778 N   0  0  0  0  0  0
  -20.2061   21.7500  -13.1087 C   0  0  0  0  0  0
  -20.9274   20.5399  -11.9577 C   0  0  0  0  0  0
  -22.1028   21.0810  -10.7137 C   0  0  0  0  0  0
  -22.6804   22.7733  -10.6836 C   0  0  0  0  0  0
  -21.9603   23.9908  -11.7880 C   0  0  0  0  0  0
  -20.7269   23.4961  -13.0318 C   0  0  0  0  0  0
  -22.4170   20.2124   -9.5602 C   0  0  0  0  0  0
  -21.7777   19.1809   -9.3888 O   0  0  0  0  0  0
  -23.5934   20.5970   -8.7061 C   0  0  0  0  0  0
  -21.0538   18.9902  -14.2405 C   0  0  0  0  0  0
  -20.8317   17.8042  -13.5478 C   0  0  0  0  0  0
  -19.5911   17.3136  -13.4744 N   0  0  0  0  0  0
  -18.6075   17.9030  -14.2265 C   0  0  0  0  0  0
  -21.8599   17.1677  -12.9696 N   0  0  0  0  0  0
  -23.1292   17.6202  -13.1579 C   0  0  0  0  0  0
  -24.2391   16.8667  -12.4931 C   0  0  0  0  0  0
  -23.4309   18.7344  -13.9179 C   0  0  0  0  0  0
  -22.3740   19.4340  -14.4549 C   0  0  0  0  0  0
  -19.8115   21.7608  -15.1176 H   0  0  0  0  0  0
  1  2  1  0  0  0
  2  3  1  0  0  0
  2  7  1  0  0  0
  3  4  1  0  0  0
  4  5  1  0  0  0
  5  6  1  0  0  0
  6  7  1  0  0  0
  7  8  1  0  0  0
  8  9  2  0  0  0
  8 10  1  0  0  0
 10 11  2  0  0  0
 10 25  1  0  0  0
 11 12  1  0  0  0
 11 22  1  0  0  0
 12 13  1  0  0  0
 12 31  1  0  0  0
 13 14  2  0  0  0
 13 18  1  0  0  0
 14 15  1  0  0  0
 15 16  2  0  0  0
 15 19  1  0  0  0
 16 17  1  0  0  0
 17 18  2  0  0  0
 19 20  2  0  0  0
 19 21  1  0  0  0
 22 23  2  0  0  0
 22 30  1  0  0  0
 23 24  1  0  0  0
 23 26  1  0  0  0
 24 25  2  0  0  0
 26 27  2  0  0  0
 27 28  1  0  0  0
 27 29  1  0  0  0
 29 30  2  0  0  0
M  END
>  <CHROM.0>
-175.23707051,-168.58169548,-167.19554010,63.57134170,-31.10696372,60.80390289
85.52493649,-165.86771029

>  <CHROM.1>
-144.01808778,-99.04088879,-24.52889612,7.01575853,-19.84386215,19.23766302
-13.89211808,0.49149514,-0.61767065,-2.83051428

>  <Name>
F3406-2752

>  <RI>
2.05233e+07

>  <Rbt.Current_Directory>
/home/adria/Escritorio/rDock_CMTR_LC/2pxcA_model/inputs_sah

>  <Rbt.Executable>
rbdock ($Id: //depot/dev/client3/rdock/2013.1/src/exe/rbdock.cxx#4 $)

>  <Rbt.Library>
libRbt.so (2013.1, Build901 2013/11/27)

>  <Rbt.Parameter_File>
/home/adria/Escritorio/rDock_2013.1_src/data/scripts/dock.prm

>  <Rbt.Receptor>
sah_rdock.prm

>  <SCORE>
-211.766

>  <SCORE.INTER>
-19.2828

>  <SCORE.INTER.CONST>
1

>  <SCORE.INTER.POLAR>
-1.62961

>  <SCORE.INTER.REPUL>
0.000523473

>  <SCORE.INTER.ROT>
4

>  <SCORE.INTER.VDW>
-23.1447

>  <SCORE.INTER.norm>
-0.64276

>  <SCORE.INTRA>
-186.849

>  <SCORE.INTRA.DIHEDRAL>
8.44747

>  <SCORE.INTRA.DIHEDRAL.0>
7.41924

>  <SCORE.INTRA.POLAR>
0

>  <SCORE.INTRA.POLAR.0>
0

>  <SCORE.INTRA.REPUL>
0

>  <SCORE.INTRA.REPUL.0>
0

>  <SCORE.INTRA.VDW>
-191.073

>  <SCORE.INTRA.VDW.0>
189.203

>  <SCORE.INTRA.norm>
-6.22831

>  <SCORE.RESTR>
0

>  <SCORE.RESTR.CAVITY>
0

>  <SCORE.RESTR.norm>
0

>  <SCORE.SYSTEM>
-5.63409

>  <SCORE.SYSTEM.CONST>
0

>  <SCORE.SYSTEM.DIHEDRAL>
6.24942

>  <SCORE.SYSTEM.POLAR>
-3.59941

>  <SCORE.SYSTEM.VDW>
3.47918

>  <SCORE.SYSTEM.norm>
-0.187803

>  <SCORE.heavy>
30

>  <SCORE.norm>
-7.05887

$$$$
F3406-2752
  rDOCK(R)          3D
libRbt.so/2013.1/901 2013/11/27
 31 34  0  0  0  0  0  0  0  0999 V2000
  -18.1155   15.4614  -17.7830 C   0  0  0  0  0  0
  -16.7595   16.8535  -16.7228 C   0  0  0  0  0  0
  -15.2506   16.6408  -16.0178 C   0  0  0  0  0  0
  -14.1435   17.1957  -16.8654 C   0  0  0  0  0  0
  -14.3226   18.6904  -17.1156 C   0  0  0  0  0  0
  -15.7157   19.1475  -17.5477 C   0  0  0  0  0  0
  -16.7868   18.5410  -16.7400 N   0  0  0  0  0  0
  -17.6267   19.4523  -15.9737 C   0  0  0  0  0  0
  -17.5072   20.6749  -16.1425 O   0  0  0  0  0  0
  -18.7114   19.0960  -14.9442 C   0  0  0  0  0  0
  -19.9104   19.7460  -14.6753 C   0  0  0  0  0  0
  -20.0175   21.1196  -14.3683 N   0  0  0  0  0  0
  -20.1557   21.7427  -13.0938 C   0  0  0  0  0  0
  -20.9034   20.5350  -11.9572 C   0  0  0  0  0  0
  -22.0739   21.0854  -10.7127 C   0  0  0  0  0  0
  -22.6211   22.7876  -10.6688 C   0  0  0  0  0  0
  -21.8747   24.0022  -11.7588 C   0  0  0  0  0  0
  -20.6453   23.4971  -13.0024 C   0  0  0  0  0  0
  -22.4084   20.2119   -9.5687 C   0  0  0  0  0  0
  -21.7947   19.1630   -9.4098 O   0  0  0  0  0  0
  -23.5741   20.6157   -8.7088 C   0  0  0  0  0  0
  -21.0313   19.0021  -14.2387 C   0  0  0  0  0  0
  -20.8157   17.8082  -13.5576 C   0  0  0  0  0  0
  -19.5798   17.3038  -13.4996 N   0  0  0  0  0  0
  -18.5969   17.8886  -14.2560 C   0  0  0  0  0  0
  -21.8453   17.1782  -12.9749 N   0  0  0  0  0  0
  -23.1113   17.6457  -13.1478 C   0  0  0  0  0  0
  -24.2232   16.8989  -12.4787 C   0  0  0  0  0  0
  -23.4080   18.7692  -13.8961 C   0  0  0  0  0  0
  -22.3486   19.4618  -14.4373 C   0  0  0  0  0  0
  -19.7577   21.7662  -15.1019 H   0  0  0  0  0  0
  1  2  1  0  0  0
  2  3  1  0  0  0
  2  7  1  0  0  0
  3  4  1  0  0  0
  4  5  1  0  0  0
  5  6  1  0  0  0
  6  7  1  0  0  0
  7  8  1  0  0  0
  8  9  2  0  0  0
  8 10  1  0  0  0
 10 11  2  0  0  0
 10 25  1  0  0  0
 11 12  1  0  0  0
 11 22  1  0  0  0
 12 13  1  0  0  0
 12 31  1  0  0  0
 13 14  2  0  0  0
 13 18  1  0  0  0
 14 15  1  0  0  0
 15 16  2  0  0  0
 15 19  1  0  0  0
 16 17  1  0  0  0
 17 18  2  0  0  0
 19 20  2  0  0  0
 19 21  1  0  0  0
 22 23  2  0  0  0
 22 30  1  0  0  0
 23 24  1  0  0  0
 23 26  1  0  0  0
 24 25  2  0  0  0
 26 27  2  0  0  0
 27 28  1  0  0  0
 27 29  1  0  0  0
 29 30  2  0  0  0
M  END
>  <CHROM.0>
-61.48369348,-73.00388715,110.12346062,63.70249936,167.39354564,-58.52466945
85.90759061,-161.60494724

>  <CHROM.1>
-145.40165226,-99.67823819,-24.84259207,6.51787073,-19.82003982,19.23874417
-13.89665783,0.49558808,-0.61885562,-2.82691916

>  <Name>
F3406-2752

>  <RI>
2.05233e+07

>  <Rbt.Current_Directory>
/home/adria/Escritorio/rDock_CMTR_LC/2pxcA_model/inputs_sah

>  <Rbt.Executable>
rbdock ($Id: //depot/dev/client3/rdock/2013.1/src/exe/rbdock.cxx#4 $)

>  <Rbt.Library>
libRbt.so (2013.1, Build901 2013/11/27)

>  <Rbt.Parameter_File>
/home/adria/Escritorio/rDock_2013.1_src/data/scripts/dock.prm

>  <Rbt.Receptor>
sah_rdock.prm

>  <SCORE>
-208.441

>  <SCORE.INTER>
-19.2259

>  <SCORE.INTER.CONST>
1

>  <SCORE.INTER.POLAR>
-1.62847

>  <SCORE.INTER.REPUL>
0.00980717

>  <SCORE.INTER.ROT>
4

>  <SCORE.INTER.VDW>
-23.1381

>  <SCORE.INTER.norm>
-0.640864

>  <SCORE.INTRA>
-186.961

>  <SCORE.INTRA.DIHEDRAL>
8.0154

>  <SCORE.INTRA.DIHEDRAL.0>
7.41924

>  <SCORE.INTRA.POLAR>
0

>  <SCORE.INTRA.POLAR.0>
0

>  <SCORE.INTRA.REPUL>
0

>  <SCORE.INTRA.REPUL.0>
0

>  <SCORE.INTRA.VDW>
-190.969

>  <SCORE.INTRA.VDW.0>
189.203

>  <SCORE.INTRA.norm>
-6.23204

>  <SCORE.RESTR>
0

>  <SCORE.RESTR.CAVITY>
0

>  <SCORE.RESTR.norm>
0

>  <SCORE.SYSTEM>
-2.25422

>  <SCORE.SYSTEM.CONST>
0

>  <SCORE.SYSTEM.DIHEDRAL>
6.9027

>  <SCORE.SYSTEM.POLAR>
-4.51822

>  <SCORE.SYSTEM.REPUL>
0.0385425

>  <SCORE.SYSTEM.VDW>
9.46367

>  <SCORE.SYSTEM.norm>
-0.0751407

>  <SCORE.heavy>
30

>  <SCORE.norm>
-6.94805

$$$$
F3406-2752
  rDOCK(R)          3D
libRbt.so/2013.1/901 2013/11/27
 31 34  0  0  0  0  0  0  0  0999 V2000
  -26.1002   20.7310  -12.2677 C   0  0  0  0  0  0
  -24.4330   21.4746  -11.0155 C   0  0  0  0  0  0
  -23.9498   23.0236  -10.5843 C   0  0  0  0  0  0
  -24.3367   23.3687   -9.1760 C   0  0  0  0  0  0
  -23.7176   22.4021   -8.1704 C   0  0  0  0  0  0
  -23.8369   20.9128   -8.4933 C   0  0  0  0  0  0
  -23.5116   20.6096   -9.8967 N   0  0  0  0  0  0
  -22.3766   19.7264  -10.1309 C   0  0  0  0  0  0
  -21.8379   19.1618   -9.1673 O   0  0  0  0  0  0
  -21.7281   19.3593  -11.4755 C   0  0  0  0  0  0
  -21.2441   20.1989  -12.4722 C   0  0  0  0  0  0
  -21.9945   21.2321  -13.0736 N   0  0  0  0  0  0
  -21.6558   22.6077  -13.2312 C   0  0  0  0  0  0
  -20.2884   22.9828  -12.0916 C   0  0  0  0  0  0
  -20.2192   24.5794  -11.2744 C   0  0  0  0  0  0
  -21.5552   25.7540  -11.4589 C   0  0  0  0  0  0
  -22.8980   25.4190  -12.6015 C   0  0  0  0  0  0
  -22.9815   23.8330  -13.4908 C   0  0  0  0  0  0
  -18.9628   25.0398  -10.6474 C   0  0  0  0  0  0
  -18.1386   24.2151  -10.2695 O   0  0  0  0  0  0
  -18.8101   26.5167  -10.4094 C   0  0  0  0  0  0
  -20.1490   19.7882  -13.2675 C   0  0  0  0  0  0
  -19.9351   18.4265  -13.4565 C   0  0  0  0  0  0
  -20.6425   17.5489  -12.7392 N   0  0  0  0  0  0
  -21.4318   18.0190  -11.7212 C   0  0  0  0  0  0
  -19.0230   18.0127  -14.3473 N   0  0  0  0  0  0
  -18.2313   18.9215  -14.9785 C   0  0  0  0  0  0
  -17.2259   18.4021  -15.9589 C   0  0  0  0  0  0
  -18.3215   20.2836  -14.7625 C   0  0  0  0  0  0
  -19.3044   20.7201  -13.9032 C   0  0  0  0  0  0
  -22.7729   20.9446  -13.6525 H   0  0  0  0  0  0
  1  2  1  0  0  0
  2  3  1  0  0  0
  2  7  1  0  0  0
  3  4  1  0  0  0
  4  5  1  0  0  0
  5  6  1  0  0  0
  6  7  1  0  0  0
  7  8  1  0  0  0
  8  9  2  0  0  0
  8 10  1  0  0  0
 10 11  2  0  0  0
 10 25  1  0  0  0
 11 12  1  0  0  0
 11 22  1  0  0  0
 12 13  1  0  0  0
 12 31  1  0  0  0
 13 14  2  0  0  0
 13 18  1  0  0  0
 14 15  1  0  0  0
 15 16  2  0  0  0
 15 19  1  0  0  0
 16 17  1  0  0  0
 17 18  2  0  0  0
 19 20  2  0  0  0
 19 21  1  0  0  0
 22 23  2  0  0  0
 22 30  1  0  0  0
 23 24  1  0  0  0
 23 26  1  0  0  0
 24 25  2  0  0  0
 26 27  2  0  0  0
 27 28  1  0  0  0
 27 29  1  0  0  0
 29 30  2  0  0  0
M  END
>  <CHROM.0>
-62.87439198,-73.06578299,-125.60430531,61.97652961,-30.72315725,57.15893998
-35.82102598,-165.79812539

>  <CHROM.1>
53.31649220,127.50168912,-16.87768186,-25.22505450,-21.31489290,21.45157053
-11.84009850,2.21664012,0.56106218,0.30093658

>  <Name>
F3406-2752

>  <RI>
2.05233e+07

>  <Rbt.Current_Directory>
/home/adria/Escritorio/rDock_CMTR_LC/2pxcA_model/inputs_sah

>  <Rbt.Executable>
rbdock ($Id: //depot/dev/client3/rdock/2013.1/src/exe/rbdock.cxx#4 $)

>  <Rbt.Library>
libRbt.so (2013.1, Build901 2013/11/27)

>  <Rbt.Parameter_File>
/home/adria/Escritorio/rDock_2013.1_src/data/scripts/dock.prm

>  <Rbt.Receptor>
sah_rdock.prm

>  <SCORE>
-209.442

>  <SCORE.INTER>
-17.4987

>  <SCORE.INTER.CONST>
1

>  <SCORE.INTER.POLAR>
-0.983298

>  <SCORE.INTER.REPUL>
0.0481034

>  <SCORE.INTER.ROT>
4

>  <SCORE.INTER.VDW>
-23.796

>  <SCORE.INTER.norm>
-0.583289

>  <SCORE.INTRA>
-184.881

>  <SCORE.INTRA.DIHEDRAL>
13.8683

>  <SCORE.INTRA.DIHEDRAL.0>
7.41924

>  <SCORE.INTRA.POLAR>
0

>  <SCORE.INTRA.POLAR.0>
0

>  <SCORE.INTRA.REPUL>
0

>  <SCORE.INTRA.REPUL.0>
0

>  <SCORE.INTRA.VDW>
-191.815

>  <SCORE.INTRA.VDW.0>
189.203

>  <SCORE.INTRA.norm>
-6.1627

>  <SCORE.RESTR>
0

>  <SCORE.RESTR.CAVITY>
0

>  <SCORE.RESTR.norm>
0

>  <SCORE.SYSTEM>
-7.06216

>  <SCORE.SYSTEM.CONST>
0

>  <SCORE.SYSTEM.DIHEDRAL>
9.42524

>  <SCORE.SYSTEM.POLAR>
-4.54108

>  <SCORE.SYSTEM.REPUL>
0.0386528

>  <SCORE.SYSTEM.VDW>
3.47162

>  <SCORE.SYSTEM.norm>
-0.235405

>  <SCORE.heavy>
30

>  <SCORE.norm>
-6.9814

$$$$
F3406-2752
  rDOCK(R)          3D
libRbt.so/2013.1/901 2013/11/27
 31 34  0  0  0  0  0  0  0  0999 V2000
  -19.2273   17.5988  -14.4478 C   0  0  0  0  0  0
  -21.2278   18.2919  -15.0944 C   0  0  0  0  0  0
  -21.7361   19.1964  -16.4144 C   0  0  0  0  0  0
  -22.3753   18.3471  -17.4737 C   0  0  0  0  0  0
  -23.5934   17.6011  -16.9365 C   0  0  0  0  0  0
  -23.4192   16.8856  -15.5971 C   0  0  0  0  0  0
  -22.7346   17.7187  -14.5947 N   0  0  0  0  0  0
  -23.4840   18.0413  -13.3874 C   0  0  0  0  0  0
  -24.5796   17.4954  -13.1891 O   0  0  0  0  0  0
  -23.0812   18.9985  -12.2540 C   0  0  0  0  0  0
  -23.0165   20.3871  -12.2624 C   0  0  0  0  0  0
  -22.2909   21.1424  -13.2087 N   0  0  0  0  0  0
  -21.9085   22.5144  -13.1539 C   0  0  0  0  0  0
  -20.8327   22.7394  -11.7043 C   0  0  0  0  0  0
  -20.9323   24.2528  -10.7444 C   0  0  0  0  0  0
  -22.1766   25.4834  -11.1133 C   0  0  0  0  0  0
  -23.2272   25.2977  -12.5564 C   0  0  0  0  0  0
  -23.1249   23.8019  -13.5885 C   0  0  0  0  0  0
  -19.8466   24.6125   -9.8087 C   0  0  0  0  0  0
  -20.1199   24.9080   -8.6510 O   0  0  0  0  0  0
  -18.4532   24.6984  -10.3675 C   0  0  0  0  0  0
  -23.2813   21.1109  -11.0764 C   0  0  0  0  0  0
  -23.0458   20.4942   -9.8517 C   0  0  0  0  0  0
  -22.7613   19.1890   -9.8220 N   0  0  0  0  0  0
  -22.8785   18.4660  -10.9813 C   0  0  0  0  0  0
  -23.1118   21.2111   -8.7211 N   0  0  0  0  0  0
  -23.5198   22.5084   -8.7642 C   0  0  0  0  0  0
  -23.5803   23.2591   -7.4702 C   0  0  0  0  0  0
  -23.8664   23.1545   -9.9358 C   0  0  0  0  0  0
  -23.7317   22.4458  -11.1081 C   0  0  0  0  0  0
  -21.7941   20.6182  -13.9173 H   0  0  0  0  0  0
  1  2  1  0  0  0
  2  3  1  0  0  0
  2  7  1  0  0  0
  3  4  1  0  0  0
  4  5  1  0  0  0
  5  6  1  0  0  0
  6  7  1  0  0  0
  7  8  1  0  0  0
  8  9  2  0  0  0
  8 10  1  0  0  0
 10 11  2  0  0  0
 10 25  1  0  0  0
 11 12  1  0  0  0
 11 22  1  0  0  0
 12 13  1  0  0  0
 12 31  1  0  0  0
 13 14  2  0  0  0
 13 18  1  0  0  0
 14 15  1  0  0  0
 15 16  2  0  0  0
 15 19  1  0  0  0
 16 17  1  0  0  0
 17 18  2  0  0  0
 19 20  2  0  0  0
 19 21  1  0  0  0
 22 23  2  0  0  0
 22 30  1  0  0  0
 23 24  1  0  0  0
 23 26  1  0  0  0
 24 25  2  0  0  0
 26 27  2  0  0  0
 27 28  1  0  0  0
 27 29  1  0  0  0
 29 30  2  0  0  0
M  END
>  <CHROM.0>
-177.30886606,69.61274519,73.27178459,-64.59495712,169.22935240,61.81468779
-154.37720965,-166.94157552

>  <CHROM.1>
71.51064121,-164.64596173,61.15347176,-128.95921499,-22.34669530,21.02331378
-12.16745668,-1.76288241,0.95895916,0.89303499

>  <Name>
F3406-2752

>  <RI>
2.05233e+07

>  <Rbt.Current_Directory>
/home/adria/Escritorio/rDock_CMTR_LC/2pxcA_model/inputs_sah

>  <Rbt.Executable>
rbdock ($Id: //depot/dev/client3/rdock/2013.1/src/exe/rbdock.cxx#4 $)

>  <Rbt.Library>
libRbt.so (2013.1, Build901 2013/11/27)

>  <Rbt.Parameter_File>
/home/adria/Escritorio/rDock_2013.1_src/data/scripts/dock.prm

>  <Rbt.Receptor>
sah_rdock.prm

>  <SCORE>
-192.796

>  <SCORE.INTER>
-12.1617

>  <SCORE.INTER.CONST>
1

>  <SCORE.INTER.POLAR>
-0.637367

>  <SCORE.INTER.REPUL>
0.00481819

>  <SCORE.INTER.ROT>
4

>  <SCORE.INTER.VDW>
-19.4187

>  <SCORE.INTER.norm>
-0.405389

>  <SCORE.INTRA>
-178.855

>  <SCORE.INTRA.DIHEDRAL>
24.6087

>  <SCORE.INTRA.DIHEDRAL.0>
7.41924

>  <SCORE.INTRA.POLAR>
0

>  <SCORE.INTRA.POLAR.0>
0

>  <SCORE.INTRA.REPUL>
0

>  <SCORE.INTRA.REPUL.0>
0

>  <SCORE.INTRA.VDW>
-191.16

>  <SCORE.INTRA.VDW.0>
189.203

>  <SCORE.INTRA.norm>
-5.96184

>  <SCORE.RESTR>
0

>  <SCORE.RESTR.CAVITY>
0

>  <SCORE.RESTR.norm>
0

>  <SCORE.SYSTEM>
-1.77897

>  <SCORE.SYSTEM.CONST>
0

>  <SCORE.SYSTEM.DIHEDRAL>
3.20495

>  <SCORE.SYSTEM.POLAR>
-3.67273

>  <SCORE.SYSTEM.VDW>
9.10585

>  <SCORE.SYSTEM.norm>
-0.059299

>  <SCORE.heavy>
30

>  <SCORE.norm>
-6.42653

$$$$
F3406-2752
  rDOCK(R)          3D
libRbt.so/2013.1/901 2013/11/27
 31 34  0  0  0  0  0  0  0  0999 V2000
  -18.9445   16.0863  -17.4096 C   0  0  0  0  0  0
  -17.9879   17.6708  -16.1952 C   0  0  0  0  0  0
  -16.4422   17.8254  -15.5581 C   0  0  0  0  0  0
  -15.5967   18.7849  -16.3435 C   0  0  0  0  0  0
  -16.2158   20.1792  -16.3802 C   0  0  0  0  0  0
  -17.7051   20.2557  -16.7155 C   0  0  0  0  0  0
  -18.5036   19.2631  -15.9776 N   0  0  0  0  0  0
  -19.5233   19.7815  -15.0749 C   0  0  0  0  0  0
  -19.7733   20.9960  -15.0750 O   0  0  0  0  0  0
  -20.3938   18.9938  -14.0824 C   0  0  0  0  0  0
  -21.2304   19.4722  -13.0806 C   0  0  0  0  0  0
  -20.8260   20.3710  -12.0702 N   0  0  0  0  0  0
  -21.0613   21.7735  -11.9748 C   0  0  0  0  0  0
  -22.1988   22.0581  -10.5839 C   0  0  0  0  0  0
  -23.4419   23.3479  -10.6962 C   0  0  0  0  0  0
  -23.6674   24.2636  -12.2159 C   0  0  0  0  0  0
  -22.5377   24.0222  -13.5892 C   0  0  0  0  0  0
  -21.2294   22.7599  -13.4995 C   0  0  0  0  0  0
  -24.1193   23.8357   -9.4769 C   0  0  0  0  0  0
  -24.6113   24.9583   -9.4671 O   0  0  0  0  0  0
  -24.0747   22.9518   -8.2612 C   0  0  0  0  0  0
  -22.3941   18.7483  -12.7307 C   0  0  0  0  0  0
  -22.4121   17.3728  -12.9388 C   0  0  0  0  0  0
  -21.4196   16.8040  -13.6291 N   0  0  0  0  0  0
  -20.5075   17.6146  -14.2544 C   0  0  0  0  0  0
  -23.4220   16.6384  -12.4515 N   0  0  0  0  0  0
  -24.4806   17.2521  -11.8565 C   0  0  0  0  0  0
  -25.5827   16.3826  -11.3360 C   0  0  0  0  0  0
  -24.5749   18.6228  -11.7067 C   0  0  0  0  0  0
  -23.5083   19.3774  -12.1402 C   0  0  0  0  0  0
  -20.5136   19.9592  -11.2003 H   0  0  0  0  0  0
  1  2  1  0  0  0
  2  3  1  0  0  0
  2  7  1  0  0  0
  3  4  1  0  0  0
  4  5  1  0  0  0
  5  6  1  0  0  0
  6  7  1  0  0  0
  7  8  1  0  0  0
  8  9  2  0  0  0
  8 10  1  0  0  0
 10 11  2  0  0  0
 10 25  1  0  0  0
 11 12  1  0  0  0
 11 22  1  0  0  0
 12 13  1  0  0  0
 12 31  1  0  0  0
 13 14  2  0  0  0
 13 18  1  0  0  0
 14 15  1  0  0  0
 15 16  2  0  0  0
 15 19  1  0  0  0
 16 17  1  0  0  0
 17 18  2  0  0  0
 19 20  2  0  0  0
 19 21  1  0  0  0
 22 23  2  0  0  0
 22 30  1  0  0  0
 23 24  1  0  0  0
 23 26  1  0  0  0
 24 25  2  0  0  0
 26 27  2  0  0  0
 27 28  1  0  0  0
 27 29  1  0  0  0
 29 30  2  0  0  0
M  END
>  <CHROM.0>
166.06555991,-72.89252994,-45.95453722,61.87694051,28.67074714,-58.29297678
-37.52090880,-159.54410684

>  <CHROM.1>
169.75793987,101.95648176,111.73144020,156.13872438,-21.24581265,19.94552967
-13.24425601,0.60615376,-0.62697224,-2.88722046

>  <Name>
F3406-2752

>  <RI>
2.05233e+07

>  <Rbt.Current_Directory>
/home/adria/Escritorio/rDock_CMTR_LC/2pxcA_model/inputs_sah

>  <Rbt.Executable>
rbdock ($Id: //depot/dev/client3/rdock/2013.1/src/exe/rbdock.cxx#4 $)

>  <Rbt.Library>
libRbt.so (2013.1, Build901 2013/11/27)

>  <Rbt.Parameter_File>
/home/adria/Escritorio/rDock_2013.1_src/data/scripts/dock.prm

>  <Rbt.Receptor>
sah_rdock.prm

>  <SCORE>
-191.21

>  <SCORE.INTER>
-11.7679

>  <SCORE.INTER.CONST>
1

>  <SCORE.INTER.POLAR>
-1.55012

>  <SCORE.INTER.REPUL>
0.0229671

>  <SCORE.INTER.ROT>
4

>  <SCORE.INTER.VDW>
-16.0123

>  <SCORE.INTER.norm>
-0.392264

>  <SCORE.INTRA>
-185.277

>  <SCORE.INTRA.DIHEDRAL>
12.3968

>  <SCORE.INTRA.DIHEDRAL.0>
7.41924

>  <SCORE.INTRA.POLAR>
0

>  <SCORE.INTRA.POLAR.0>
0

>  <SCORE.INTRA.REPUL>
0

>  <SCORE.INTRA.REPUL.0>
0

>  <SCORE.INTRA.VDW>
-191.476

>  <SCORE.INTRA.VDW.0>
189.203

>  <SCORE.INTRA.norm>
-6.17591

>  <SCORE.RESTR>
0.60715

>  <SCORE.RESTR.CAVITY>
0.60715

>  <SCORE.RESTR.norm>
0.0202383

>  <SCORE.SYSTEM>
5.22851

>  <SCORE.SYSTEM.CONST>
0

>  <SCORE.SYSTEM.DIHEDRAL>
7.74201

>  <SCORE.SYSTEM.POLAR>
-3.70745

>  <SCORE.SYSTEM.REPUL>
0.038343

>  <SCORE.SYSTEM.VDW>
13.7711

>  <SCORE.SYSTEM.norm>
0.174284

>  <SCORE.heavy>
30

>  <SCORE.norm>
-6.37366

$$$$
F3406-2752
  rDOCK(R)          3D
libRbt.so/2013.1/901 2013/11/27
 31 34  0  0  0  0  0  0  0  0999 V2000
  -27.6533   24.1551  -10.6771 C   0  0  0  0  0  0
  -25.9497   22.7767  -10.3637 C   0  0  0  0  0  0
  -24.5302   22.9205   -9.4786 C   0  0  0  0  0  0
  -24.5823   22.1512   -8.1911 C   0  0  0  0  0  0
  -24.8183   20.6633   -8.4348 C   0  0  0  0  0  0
  -25.9356   20.3011   -9.4131 C   0  0  0  0  0  0
  -25.8986   21.1126  -10.6409 N   0  0  0  0  0  0
  -25.6937   20.3976  -11.8939 C   0  0  0  0  0  0
  -25.7077   19.1576  -11.8944 O   0  0  0  0  0  0
  -25.4692   20.9918  -13.2938 C   0  0  0  0  0  0
  -25.0043   20.3675  -14.4456 C   0  0  0  0  0  0
  -23.7988   19.6371  -14.5214 N   0  0  0  0  0  0
  -22.5627   19.8802  -13.8545 C   0  0  0  0  0  0
  -21.2404   19.8722  -15.1038 C   0  0  0  0  0  0
  -19.6325   19.1851  -14.6981 C   0  0  0  0  0  0
  -19.3584   18.3800  -13.1248 C   0  0  0  0  0  0
  -20.6372   18.4034  -11.8660 C   0  0  0  0  0  0
  -22.2666   19.1353  -12.2164 C   0  0  0  0  0  0
  -18.4594   19.4890  -15.5438 C   0  0  0  0  0  0
  -17.3365   19.2035  -15.1443 O   0  0  0  0  0  0
  -18.7060   20.2391  -16.8236 C   0  0  0  0  0  0
  -25.4579   20.8015  -15.7130 C   0  0  0  0  0  0
  -25.8732   22.1215  -15.8569 C   0  0  0  0  0  0
  -26.0124   22.8844  -14.7689 N   0  0  0  0  0  0
  -25.9064   22.2936  -13.5360 C   0  0  0  0  0  0
  -26.1328   22.6090  -17.0783 N   0  0  0  0  0  0
  -26.1004   21.7825  -18.1586 C   0  0  0  0  0  0
  -26.4045   22.3799  -19.4974 C   0  0  0  0  0  0
  -25.7941   20.4374  -18.0740 C   0  0  0  0  0  0
  -25.4562   19.9465  -16.8332 C   0  0  0  0  0  0
  -23.8582   18.7115  -14.9256 H   0  0  0  0  0  0
  1  2  1  0  0  0
  2  3  1  0  0  0
  2  7  1  0  0  0
  3  4  1  0  0  0
  4  5  1  0  0  0
  5  6  1  0  0  0
  6  7  1  0  0  0
  7  8  1  0  0  0
  8  9  2  0  0  0
  8 10  1  0  0  0
 10 11  2  0  0  0
 10 25  1  0  0  0
 11 12  1  0  0  0
 11 22  1  0  0  0
 12 13  1  0  0  0
 12 31  1  0  0  0
 13 14  2  0  0  0
 13 18  1  0  0  0
 14 15  1  0  0  0
 15 16  2  0  0  0
 15 19  1  0  0  0
 16 17  1  0  0  0
 17 18  2  0  0  0
 19 20  2  0  0  0
 19 21  1  0  0  0
 22 23  2  0  0  0
 22 30  1  0  0  0
 23 24  1  0  0  0
 23 26  1  0  0  0
 24 25  2  0  0  0
 26 27  2  0  0  0
 27 28  1  0  0  0
 27 29  1  0  0  0
 29 30  2  0  0  0
M  END
>  <CHROM.0>
-62.04597714,-167.92024081,-164.64675717,65.88576885,168.51385691,-176.51355351
-36.11133871,-161.65405511

>  <CHROM.1>
165.35301089,-35.06926433,-129.03351765,168.02286509,-23.94273667,20.80226198
-13.66615108,2.43931675,-0.39271564,1.58493095

>  <Name>
F3406-2752

>  <RI>
2.05233e+07

>  <Rbt.Current_Directory>
/home/adria/Escritorio/rDock_CMTR_LC/2pxcA_model/inputs_sah

>  <Rbt.Executable>
rbdock ($Id: //depot/dev/client3/rdock/2013.1/src/exe/rbdock.cxx#4 $)

>  <Rbt.Library>
libRbt.so (2013.1, Build901 2013/11/27)

>  <Rbt.Parameter_File>
/home/adria/Escritorio/rDock_2013.1_src/data/scripts/dock.prm

>  <Rbt.Receptor>
sah_rdock.prm

>  <SCORE>
-194.862

>  <SCORE.INTER>
-9.1904

>  <SCORE.INTER.CONST>
1

>  <SCORE.INTER.POLAR>
-0.403314

>  <SCORE.INTER.REPUL>
0

>  <SCORE.INTER.ROT>
4

>  <SCORE.INTER.VDW>
-17.2191

>  <SCORE.INTER.norm>
-0.306347

>  <SCORE.INTRA>
-184.941

>  <SCORE.INTRA.DIHEDRAL>
12.9876

>  <SCORE.INTRA.DIHEDRAL.0>
7.41924

>  <SCORE.INTRA.POLAR>
0

>  <SCORE.INTRA.POLAR.0>
0

>  <SCORE.INTRA.REPUL>
0

>  <SCORE.INTRA.REPUL.0>
0

>  <SCORE.INTRA.VDW>
-191.434

>  <SCORE.INTRA.VDW.0>
189.203

>  <SCORE.INTRA.norm>
-6.16468

>  <SCORE.RESTR>
0.588718

>  <SCORE.RESTR.CAVITY>
0.588718

>  <SCORE.RESTR.norm>
0.0196239

>  <SCORE.SYSTEM>
-1.31978

>  <SCORE.SYSTEM.CONST>
0

>  <SCORE.SYSTEM.DIHEDRAL>
3.80888

>  <SCORE.SYSTEM.POLAR>
-3.5947

>  <SCORE.SYSTEM.VDW>
8.99774

>  <SCORE.SYSTEM.norm>
-0.0439927

>  <SCORE.heavy>
30

>  <SCORE.norm>
-6.4954

$$$$
F3406-2752
  rDOCK(R)          3D
libRbt.so/2013.1/901 2013/11/27
 31 34  0  0  0  0  0  0  0  0999 V2000
  -19.1185   16.1277  -16.9835 C   0  0  0  0  0  0
  -17.5691   17.4625  -16.1362 C   0  0  0  0  0  0
  -15.9485   17.2201  -15.7705 C   0  0  0  0  0  0
  -15.0367   17.8387  -16.7894 C   0  0  0  0  0  0
  -15.2581   19.3445  -16.9008 C   0  0  0  0  0  0
  -16.7087   19.8146  -17.0079 C   0  0  0  0  0  0
  -17.5934   19.1474  -16.0387 N   0  0  0  0  0  0
  -18.2551   19.9997  -15.0595 C   0  0  0  0  0  0
  -18.1685   21.2317  -15.1701 O   0  0  0  0  0  0
  -19.1069   19.5679  -13.8548 C   0  0  0  0  0  0
  -20.0217   20.3113  -13.1180 C   0  0  0  0  0  0
  -19.7327   21.5546  -12.5155 N   0  0  0  0  0  0
  -20.6151   22.4477  -11.8407 C   0  0  0  0  0  0
  -21.9614   22.8779  -12.9859 C   0  0  0  0  0  0
  -22.6449   24.5376  -12.9778 C   0  0  0  0  0  0
  -21.9219   25.8137  -11.9544 C   0  0  0  0  0  0
  -20.6146   25.4055  -10.7947 C   0  0  0  0  0  0
  -19.9258   23.7218  -10.7327 C   0  0  0  0  0  0
  -23.9490   24.8076  -13.6181 C   0  0  0  0  0  0
  -24.3749   25.9561  -13.6607 O   0  0  0  0  0  0
  -24.7421   23.6231  -14.0970 C   0  0  0  0  0  0
  -21.1415   19.6723  -12.5364 C   0  0  0  0  0  0
  -21.0453   18.3230  -12.2111 C   0  0  0  0  0  0
  -19.9824   17.6262  -12.6233 N   0  0  0  0  0  0
  -19.1074   18.2204  -13.4960 C   0  0  0  0  0  0
  -22.0173   17.7390  -11.4962 N   0  0  0  0  0  0
  -23.1452   18.4357  -11.1901 C   0  0  0  0  0  0
  -24.2002   17.7314  -10.3948 C   0  0  0  0  0  0
  -23.3502   19.7489  -11.5690 C   0  0  0  0  0  0
  -22.3258   20.3766  -12.2409 C   0  0  0  0  0  0
  -18.7556   21.7567  -12.3471 H   0  0  0  0  0  0
  1  2  1  0  0  0
  2  3  1  0  0  0
  2  7  1  0  0  0
  3  4  1  0  0  0
  4  5  1  0  0  0
  5  6  1  0  0  0
  6  7  1  0  0  0
  7  8  1  0  0  0
  8  9  2  0  0  0
  8 10  1  0  0  0
 10 11  2  0  0  0
 10 25  1  0  0  0
 11 12  1  0  0  0
 11 22  1  0  0  0
 12 13  1  0  0  0
 12 31  1  0  0  0
 13 14  2  0  0  0
 13 18  1  0  0  0
 14 15  1  0  0  0
 15 16  2  0  0  0
 15 19  1  0  0  0
 16 17  1  0  0  0
 17 18  2  0  0  0
 19 20  2  0  0  0
 19 21  1  0  0  0
 22 23  2  0  0  0
 22 30  1  0  0  0
 23 24  1  0  0  0
 23 26  1  0  0  0
 24 25  2  0  0  0
 26 27  2  0  0  0
 27 28  1  0  0  0
 27 29  1  0  0  0
 29 30  2  0  0  0
M  END
>  <CHROM.0>
-60.97251563,61.61011669,-128.92026790,-63.89280348,168.06265740,58.88796418
-158.67581504,-159.43354655

>  <CHROM.1>
-161.42355196,174.16598716,-56.82811772,-176.58868725,-20.29685590,20.54029228
-13.58101804,0.60582015,-0.62555800,3.03014317

>  <Name>
F3406-2752

>  <RI>
2.05233e+07

>  <Rbt.Current_Directory>
/home/adria/Escritorio/rDock_CMTR_LC/2pxcA_model/inputs_sah

>  <Rbt.Executable>
rbdock ($Id: //depot/dev/client3/rdock/2013.1/src/exe/rbdock.cxx#4 $)

>  <Rbt.Library>
libRbt.so (2013.1, Build901 2013/11/27)

>  <Rbt.Parameter_File>
/home/adria/Escritorio/rDock_2013.1_src/data/scripts/dock.prm

>  <Rbt.Receptor>
sah_rdock.prm

>  <SCORE>
-203.349

>  <SCORE.INTER>
-15.2155

>  <SCORE.INTER.CONST>
1

>  <SCORE.INTER.POLAR>
-2.0033

>  <SCORE.INTER.REPUL>
0.625402

>  <SCORE.INTER.ROT>
4

>  <SCORE.INTER.VDW>
-20.9312

>  <SCORE.INTER.norm>
-0.507182

>  <SCORE.INTRA>
-186.383

>  <SCORE.INTRA.DIHEDRAL>
0.536944

>  <SCORE.INTRA.DIHEDRAL.0>
7.41924

>  <SCORE.INTRA.POLAR>
0

>  <SCORE.INTRA.POLAR.0>
0

>  <SCORE.INTRA.REPUL>
0

>  <SCORE.INTRA.REPUL.0>
0

>  <SCORE.INTRA.VDW>
-186.651

>  <SCORE.INTRA.VDW.0>
189.203

>  <SCORE.INTRA.norm>
-6.21276

>  <SCORE.RESTR>
0

>  <SCORE.RESTR.CAVITY>
0

>  <SCORE.RESTR.norm>
0

>  <SCORE.SYSTEM>
-1.75096

>  <SCORE.SYSTEM.CONST>
0

>  <SCORE.SYSTEM.DIHEDRAL>
5.78563

>  <SCORE.SYSTEM.POLAR>
-4.14446

>  <SCORE.SYSTEM.VDW>
9.4474

>  <SCORE.SYSTEM.norm>
-0.0583653

>  <SCORE.heavy>
30

>  <SCORE.norm>
-6.77831

$$$$
F3406-2752
  rDOCK(R)          3D
libRbt.so/2013.1/901 2013/11/27
 31 34  0  0  0  0  0  0  0  0999 V2000
  -22.1666   18.2236  -17.2223 C   0  0  0  0  0  0
  -20.3940   18.4474  -15.9154 C   0  0  0  0  0  0
  -19.4137   17.3250  -15.1419 C   0  0  0  0  0  0
  -18.0989   17.1403  -15.8415 C   0  0  0  0  0  0
  -17.3171   18.4484  -15.9227 C   0  0  0  0  0  0
  -18.0939   19.6796  -16.3889 C   0  0  0  0  0  0
  -19.4059   19.8035  -15.7326 N   0  0  0  0  0  0
  -19.6233   20.9937  -14.9205 C   0  0  0  0  0  0
  -18.7775   21.9004  -14.9338 O   0  0  0  0  0  0
  -20.8245   21.3123  -14.0156 C   0  0  0  0  0  0
  -21.1860   22.5221  -13.4342 C   0  0  0  0  0  0
  -20.3275   23.3064  -12.6340 N   0  0  0  0  0  0
  -20.4468   23.6367  -11.2526 C   0  0  0  0  0  0
  -21.9637   22.8578  -10.6187 C   0  0  0  0  0  0
  -22.9620   23.7114   -9.3954 C   0  0  0  0  0  0
  -22.5581   25.3808   -8.8965 C   0  0  0  0  0  0
  -21.0505   26.1569   -9.4843 C   0  0  0  0  0  0
  -19.9809   25.3067  -10.6869 C   0  0  0  0  0  0
  -23.9707   22.9699   -8.6104 C   0  0  0  0  0  0
  -24.5861   23.5454   -7.7202 O   0  0  0  0  0  0
  -24.1133   21.4980   -8.8833 C   0  0  0  0  0  0
  -22.5521   22.8186  -13.2187 C   0  0  0  0  0  0
  -23.4443   21.7652  -13.0458 C   0  0  0  0  0  0
  -23.0307   20.5153  -13.2735 N   0  0  0  0  0  0
  -21.7934   20.3260  -13.8333 C   0  0  0  0  0  0
  -24.7035   22.0150  -12.6599 N   0  0  0  0  0  0
  -25.1361   23.3004  -12.5500 C   0  0  0  0  0  0
  -26.5536   23.5200  -12.1210 C   0  0  0  0  0  0
  -24.3312   24.3946  -12.8049 C   0  0  0  0  0  0
  -23.0173   24.1460  -13.1315 C   0  0  0  0  0  0
  -19.4066   23.4917  -13.0100 H   0  0  0  0  0  0
  1  2  1  0  0  0
  2  3  1  0  0  0
  2  7  1  0  0  0
  3  4  1  0  0  0
  4  5  1  0  0  0
  5  6  1  0  0  0
  6  7  1  0  0  0
  7  8  1  0  0  0
  8  9  2  0  0  0
  8 10  1  0  0  0
 10 11  2  0  0  0
 10 25  1  0  0  0
 11 12  1  0  0  0
 11 22  1  0  0  0
 12 13  1  0  0  0
 12 31  1  0  0  0
 13 14  2  0  0  0
 13 18  1  0  0  0
 14 15  1  0  0  0
 15 16  2  0  0  0
 15 19  1  0  0  0
 16 17  1  0  0  0
 17 18  2  0  0  0
 19 20  2  0  0  0
 19 21  1  0  0  0
 22 23  2  0  0  0
 22 30  1  0  0  0
 23 24  1  0  0  0
 23 26  1  0  0  0
 24 25  2  0  0  0
 26 27  2  0  0  0
 27 28  1  0  0  0
 27 29  1  0  0  0
 29 30  2  0  0  0
M  END
>  <CHROM.0>
-176.96331591,68.75889888,-8.64711339,-60.07660642,-29.24820471,62.91848449
-155.71291094,-158.32730528

>  <CHROM.1>
-166.46011030,-115.37273202,-0.11703744,175.40357913,-21.71409884,21.84556593
-12.83704705,1.05427093,-0.14144601,-2.36519185

>  <Name>
F3406-2752

>  <RI>
2.05233e+07

>  <Rbt.Current_Directory>
/home/adria/Escritorio/rDock_CMTR_LC/2pxcA_model/inputs_sah

>  <Rbt.Executable>
rbdock ($Id: //depot/dev/client3/rdock/2013.1/src/exe/rbdock.cxx#4 $)

>  <Rbt.Library>
libRbt.so (2013.1, Build901 2013/11/27)

>  <Rbt.Parameter_File>
/home/adria/Escritorio/rDock_2013.1_src/data/scripts/dock.prm

>  <Rbt.Receptor>
sah_rdock.prm

>  <SCORE>
-208.854

>  <SCORE.INTER>
-13.59

>  <SCORE.INTER.CONST>
1

>  <SCORE.INTER.POLAR>
-0.271949

>  <SCORE.INTER.REPUL>
0

>  <SCORE.INTER.ROT>
4

>  <SCORE.INTER.VDW>
-22.0654

>  <SCORE.INTER.norm>
-0.453001

>  <SCORE.INTRA>
-188.837

>  <SCORE.INTRA.DIHEDRAL>
3.3605

>  <SCORE.INTRA.DIHEDRAL.0>
7.41924

>  <SCORE.INTRA.POLAR>
0

>  <SCORE.INTRA.POLAR.0>
0

>  <SCORE.INTRA.REPUL>
0

>  <SCORE.INTRA.REPUL.0>
0

>  <SCORE.INTRA.VDW>
-190.517

>  <SCORE.INTRA.VDW.0>
189.203

>  <SCORE.INTRA.norm>
-6.29457

>  <SCORE.RESTR>
0

>  <SCORE.RESTR.CAVITY>
0

>  <SCORE.RESTR.norm>
0

>  <SCORE.SYSTEM>
-6.42737

>  <SCORE.SYSTEM.CONST>
0

>  <SCORE.SYSTEM.DIHEDRAL>
9.52327

>  <SCORE.SYSTEM.POLAR>
-4.36617

>  <SCORE.SYSTEM.VDW>
3.65597

>  <SCORE.SYSTEM.norm>
-0.214246

>  <SCORE.heavy>
30

>  <SCORE.norm>
-6.96181

$$$$
F3406-2752
  rDOCK(R)          3D
libRbt.so/2013.1/901 2013/11/27
 31 34  0  0  0  0  0  0  0  0999 V2000
  -24.7230   19.3470  -14.3364 C   0  0  0  0  0  0
  -22.6076   19.2671  -13.6893 C   0  0  0  0  0  0
  -21.7560   18.1665  -12.7498 C   0  0  0  0  0  0
  -20.8870   17.2650  -13.5770 C   0  0  0  0  0  0
  -19.8658   18.0579  -14.3877 C   0  0  0  0  0  0
  -20.3950   19.2718  -15.1512 C   0  0  0  0  0  0
  -21.2936   20.1059  -14.3363 N   0  0  0  0  0  0
  -20.8714   21.4788  -14.0909 C   0  0  0  0  0  0
  -19.8768   21.9231  -14.6834 O   0  0  0  0  0  0
  -21.5284   22.5175  -13.1674 C   0  0  0  0  0  0
  -21.7770   22.4418  -11.8018 C   0  0  0  0  0  0
  -22.4815   21.3885  -11.1802 N   0  0  0  0  0  0
  -23.6582   21.4508  -10.3782 C   0  0  0  0  0  0
  -24.8151   22.6108  -11.1688 C   0  0  0  0  0  0
  -25.8447   23.6757  -10.1550 C   0  0  0  0  0  0
  -25.6450   23.7097   -8.3781 C   0  0  0  0  0  0
  -24.5333   22.5528   -7.5741 C   0  0  0  0  0  0
  -23.5070   21.4188   -8.5610 C   0  0  0  0  0  0
  -27.0242   24.3460  -10.7408 C   0  0  0  0  0  0
  -27.6407   25.1722  -10.0779 O   0  0  0  0  0  0
  -27.4712   23.8922  -12.1029 C   0  0  0  0  0  0
  -21.7518   23.6176  -11.0160 C   0  0  0  0  0  0
  -22.0441   24.8337  -11.6252 C   0  0  0  0  0  0
  -22.1529   24.8878  -12.9558 N   0  0  0  0  0  0
  -21.8054   23.7814  -13.6875 C   0  0  0  0  0  0
  -22.2072   25.9326  -10.8751 N   0  0  0  0  0  0
  -21.9743   25.8793   -9.5357 C   0  0  0  0  0  0
  -22.1664   27.1383   -8.7484 C   0  0  0  0  0  0
  -21.5829   24.7271   -8.8805 C   0  0  0  0  0  0
  -21.4835   23.5788   -9.6331 C   0  0  0  0  0  0
  -22.2661   20.4529  -11.4996 H   0  0  0  0  0  0
  1  2  1  0  0  0
  2  3  1  0  0  0
  2  7  1  0  0  0
  3  4  1  0  0  0
  4  5  1  0  0  0
  5  6  1  0  0  0
  6  7  1  0  0  0
  7  8  1  0  0  0
  8  9  2  0  0  0
  8 10  1  0  0  0
 10 11  2  0  0  0
 10 25  1  0  0  0
 11 12  1  0  0  0
 11 22  1  0  0  0
 12 13  1  0  0  0
 12 31  1  0  0  0
 13 14  2  0  0  0
 13 18  1  0  0  0
 14 15  1  0  0  0
 15 16  2  0  0  0
 15 19  1  0  0  0
 16 17  1  0  0  0
 17 18  2  0  0  0
 19 20  2  0  0  0
 19 21  1  0  0  0
 22 23  2  0  0  0
 22 30  1  0  0  0
 23 24  1  0  0  0
 23 26  1  0  0  0
 24 25  2  0  0  0
 26 27  2  0  0  0
 27 28  1  0  0  0
 27 29  1  0  0  0
 29 30  2  0  0  0
M  END
>  <CHROM.0>
-176.92399323,-74.49942869,78.65451554,65.88298794,-31.38548718,174.05629903
82.55353221,-155.46534316

>  <CHROM.1>
58.07130285,-122.41389260,42.84046573,-172.77269464,-22.85557331,22.44970366
-11.68920306,1.08693854,-0.30606216,-2.61475948

>  <Name>
F3406-2752

>  <RI>
2.05233e+07

>  <Rbt.Current_Directory>
/home/adria/Escritorio/rDock_CMTR_LC/2pxcA_model/inputs_sah

>  <Rbt.Executable>
rbdock ($Id: //depot/dev/client3/rdock/2013.1/src/exe/rbdock.cxx#4 $)

>  <Rbt.Library>
libRbt.so (2013.1, Build901 2013/11/27)

>  <Rbt.Parameter_File>
/home/adria/Escritorio/rDock_2013.1_src/data/scripts/dock.prm

>  <Rbt.Receptor>
sah_rdock.prm

>  <SCORE>
-186.584

>  <SCORE.INTER>
4.16883

>  <SCORE.INTER.CONST>
1

>  <SCORE.INTER.POLAR>
-1.82618

>  <SCORE.INTER.REPUL>
0

>  <SCORE.INTER.ROT>
4

>  <SCORE.INTER.VDW>
0.977839

>  <SCORE.INTER.norm>
0.138961

>  <SCORE.INTRA>
-183.996

>  <SCORE.INTRA.DIHEDRAL>
17.2392

>  <SCORE.INTRA.DIHEDRAL.0>
7.41924

>  <SCORE.INTRA.POLAR>
0

>  <SCORE.INTRA.POLAR.0>
0

>  <SCORE.INTRA.REPUL>
0

>  <SCORE.INTRA.REPUL.0>
0

>  <SCORE.INTRA.VDW>
-192.615

>  <SCORE.INTRA.VDW.0>
189.203

>  <SCORE.INTRA.norm>
-6.13318

>  <SCORE.RESTR>
0.186206

>  <SCORE.RESTR.CAVITY>
0.186206

>  <SCORE.RESTR.norm>
0.00620686

>  <SCORE.SYSTEM>
-6.94345

>  <SCORE.SYSTEM.CONST>
0

>  <SCORE.SYSTEM.DIHEDRAL>
7.36622

>  <SCORE.SYSTEM.POLAR>
-4.03307

>  <SCORE.SYSTEM.REPUL>
0.0411025

>  <SCORE.SYSTEM.VDW>
2.88038

>  <SCORE.SYSTEM.norm>
-0.231448

>  <SCORE.heavy>
30

>  <SCORE.norm>
-6.21946

$$$$
F3406-2752
  rDOCK(R)          3D
libRbt.so/2013.1/901 2013/11/27
 31 34  0  0  0  0  0  0  0  0999 V2000
  -26.1337   17.1551  -10.9820 C   0  0  0  0  0  0
  -25.3640   19.2029  -10.6430 C   0  0  0  0  0  0
  -26.0948   20.7119  -10.7321 C   0  0  0  0  0  0
  -26.4039   21.2751   -9.3759 C   0  0  0  0  0  0
  -25.1427   21.4290   -8.5306 C   0  0  0  0  0  0
  -24.1935   20.2313   -8.4971 C   0  0  0  0  0  0
  -23.9556   19.6596   -9.8327 N   0  0  0  0  0  0
  -22.5834   19.6850  -10.3223 C   0  0  0  0  0  0
  -21.6730   20.0392   -9.5586 O   0  0  0  0  0  0
  -22.0723   19.2967  -11.7192 C   0  0  0  0  0  0
  -20.8877   19.6590  -12.3499 C   0  0  0  0  0  0
  -20.4545   20.9914  -12.5209 N   0  0  0  0  0  0
  -21.1998   22.1985  -12.3827 C   0  0  0  0  0  0
  -20.1486   23.4121  -11.5275 C   0  0  0  0  0  0
  -20.8798   24.5587  -10.3560 C   0  0  0  0  0  0
  -22.6080   24.4288   -9.9143 C   0  0  0  0  0  0
  -23.6705   23.2610  -10.7673 C   0  0  0  0  0  0
  -22.9810   22.1132  -12.0003 C   0  0  0  0  0  0
  -20.1370   25.7643   -9.9334 C   0  0  0  0  0  0
  -20.7488   26.7181   -9.4664 O   0  0  0  0  0  0
  -18.6576   25.7936  -10.2015 C   0  0  0  0  0  0
  -20.2732   18.7664  -13.2588 C   0  0  0  0  0  0
  -21.0705   17.8479  -13.9342 C   0  0  0  0  0  0
  -22.3490   17.7038  -13.5737 N   0  0  0  0  0  0
  -22.7865   18.3409  -12.4410 C   0  0  0  0  0  0
  -20.5488   17.1180  -14.9301 N   0  0  0  0  0  0
  -19.2175   17.1943  -15.2006 C   0  0  0  0  0  0
  -18.6885   16.3524  -16.3200 C   0  0  0  0  0  0
  -18.3486   18.0111  -14.5020 C   0  0  0  0  0  0
  -18.8904   18.8165  -13.5261 C   0  0  0  0  0  0
  -19.4539   21.1407  -12.5376 H   0  0  0  0  0  0
  1  2  1  0  0  0
  2  3  1  0  0  0
  2  7  1  0  0  0
  3  4  1  0  0  0
  4  5  1  0  0  0
  5  6  1  0  0  0
  6  7  1  0  0  0
  7  8  1  0  0  0
  8  9  2  0  0  0
  8 10  1  0  0  0
 10 11  2  0  0  0
 10 25  1  0  0  0
 11 12  1  0  0  0
 11 22  1  0  0  0
 12 13  1  0  0  0
 12 31  1  0  0  0
 13 14  2  0  0  0
 13 18  1  0  0  0
 14 15  1  0  0  0
 15 16  2  0  0  0
 15 19  1  0  0  0
 16 17  1  0  0  0
 17 18  2  0  0  0
 19 20  2  0  0  0
 19 21  1  0  0  0
 22 23  2  0  0  0
 22 30  1  0  0  0
 23 24  1  0  0  0
 23 26  1  0  0  0
 24 25  2  0  0  0
 26 27  2  0  0  0
 27 28  1  0  0  0
 27 29  1  0  0  0
 29 30  2  0  0  0
M  END
>  <CHROM.0>
-59.44778584,-71.82954637,-168.36672828,65.50279317,-32.08553036,-177.09319044
-36.33013915,-162.58507312

>  <CHROM.1>
159.10662256,-15.10089514,138.71654686,158.82290412,-21.96709826,20.60864263
-11.60209906,1.27691405,-0.48999635,-2.66306304

>  <Name>
F3406-2752

>  <RI>
2.05233e+07

>  <Rbt.Current_Directory>
/home/adria/Escritorio/rDock_CMTR_LC/2pxcA_model/inputs_sah

>  <Rbt.Executable>
rbdock ($Id: //depot/dev/client3/rdock/2013.1/src/exe/rbdock.cxx#4 $)

>  <Rbt.Library>
libRbt.so (2013.1, Build901 2013/11/27)

>  <Rbt.Parameter_File>
/home/adria/Escritorio/rDock_2013.1_src/data/scripts/dock.prm

>  <Rbt.Receptor>
sah_rdock.prm

>  <SCORE>
-211.734

>  <SCORE.INTER>
-13.4848

>  <SCORE.INTER.CONST>
1

>  <SCORE.INTER.POLAR>
-0.748716

>  <SCORE.INTER.REPUL>
0.178928

>  <SCORE.INTER.ROT>
4

>  <SCORE.INTER.VDW>
-21.2338

>  <SCORE.INTER.norm>
-0.449492

>  <SCORE.INTRA>
-191.115

>  <SCORE.INTRA.DIHEDRAL>
1.99361

>  <SCORE.INTRA.DIHEDRAL.0>
7.41924

>  <SCORE.INTRA.POLAR>
0

>  <SCORE.INTRA.POLAR.0>
0

>  <SCORE.INTRA.REPUL>
0

>  <SCORE.INTRA.REPUL.0>
0

>  <SCORE.INTRA.VDW>
-192.112

>  <SCORE.INTRA.VDW.0>
189.203

>  <SCORE.INTRA.norm>
-6.37051

>  <SCORE.RESTR>
0.33407

>  <SCORE.RESTR.CAVITY>
0.33407

>  <SCORE.RESTR.norm>
0.0111357

>  <SCORE.SYSTEM>
-7.4682

>  <SCORE.SYSTEM.CONST>
0

>  <SCORE.SYSTEM.DIHEDRAL>
6.01529

>  <SCORE.SYSTEM.POLAR>
-3.94388

>  <SCORE.SYSTEM.REPUL>
0.0363787

>  <SCORE.SYSTEM.VDW>
2.75146

>  <SCORE.SYSTEM.norm>
-0.24894

>  <SCORE.heavy>
30

>  <SCORE.norm>
-7.0578

$$$$
F3406-2752
  rDOCK(R)          3D
libRbt.so/2013.1/901 2013/11/27
 31 34  0  0  0  0  0  0  0  0999 V2000
  -24.5395   16.4120  -12.5163 C   0  0  0  0  0  0
  -24.6872   18.4725  -11.7206 C   0  0  0  0  0  0
  -25.9490   19.5795  -11.6827 C   0  0  0  0  0  0
  -26.5794   19.6771  -10.3243 C   0  0  0  0  0  0
  -25.5674   20.1036   -9.2647 C   0  0  0  0  0  0
  -24.2258   19.3711   -9.2686 C   0  0  0  0  0  0
  -23.6589   19.2347  -10.6204 N   0  0  0  0  0  0
  -22.3730   19.8767  -10.8603 C   0  0  0  0  0  0
  -21.7537   20.3705   -9.9062 O   0  0  0  0  0  0
  -21.6247   20.0211  -12.1954 C   0  0  0  0  0  0
  -20.3596   20.5437  -12.4378 C   0  0  0  0  0  0
  -19.9353   21.8231  -12.0188 N   0  0  0  0  0  0
  -20.6730   22.8275  -11.3270 C   0  0  0  0  0  0
  -22.2321   23.0968  -12.2247 C   0  0  0  0  0  0
  -22.9232   24.7494  -12.3387 C   0  0  0  0  0  0
  -22.0238   26.1571  -11.7001 C   0  0  0  0  0  0
  -20.5003   25.9126  -10.7837 C   0  0  0  0  0  0
  -19.7892   24.2472  -10.5993 C   0  0  0  0  0  0
  -24.3349   24.9393  -12.7321 C   0  0  0  0  0  0
  -24.7094   26.0374  -13.1273 O   0  0  0  0  0  0
  -25.2722   23.7822  -12.5227 C   0  0  0  0  0  0
  -19.5797   20.0334  -13.5017 C   0  0  0  0  0  0
  -20.2299   19.4709  -14.5956 C   0  0  0  0  0  0
  -21.5471   19.2559  -14.5324 N   0  0  0  0  0  0
  -22.1842   19.4381  -13.3319 C   0  0  0  0  0  0
  -19.5306   19.1479  -15.6926 N   0  0  0  0  0  0
  -18.1750   19.2641  -15.6906 C   0  0  0  0  0  0
  -17.4451   18.8834  -16.9412 C   0  0  0  0  0  0
  -17.4558   19.7206  -14.6023 C   0  0  0  0  0  0
  -18.1733   20.1220  -13.4982 C   0  0  0  0  0  0
  -18.9367   21.9860  -12.0116 H   0  0  0  0  0  0
  1  2  1  0  0  0
  2  3  1  0  0  0
  2  7  1  0  0  0
  3  4  1  0  0  0
  4  5  1  0  0  0
  5  6  1  0  0  0
  6  7  1  0  0  0
  7  8  1  0  0  0
  8  9  2  0  0  0
  8 10  1  0  0  0
 10 11  2  0  0  0
 10 25  1  0  0  0
 11 12  1  0  0  0
 11 22  1  0  0  0
 12 13  1  0  0  0
 12 31  1  0  0  0
 13 14  2  0  0  0
 13 18  1  0  0  0
 14 15  1  0  0  0
 15 16  2  0  0  0
 15 19  1  0  0  0
 16 17  1  0  0  0
 17 18  2  0  0  0
 19 20  2  0  0  0
 19 21  1  0  0  0
 22 23  2  0  0  0
 22 30  1  0  0  0
 23 24  1  0  0  0
 23 26  1  0  0  0
 24 25  2  0  0  0
 26 27  2  0  0  0
 27 28  1  0  0  0
 27 29  1  0  0  0
 29 30  2  0  0  0
M  END
>  <CHROM.0>
177.79824170,64.83899278,75.27021782,62.80539067,-31.66771322,60.07049012
-36.06431320,-162.49035767

>  <CHROM.1>
-175.01496335,-1.89454193,-51.29313103,-161.96806849,-22.00026141,21.06747538
-12.40305530,2.68038862,0.51933568,0.13979111

>  <Name>
F3406-2752

>  <RI>
2.05233e+07

>  <Rbt.Current_Directory>
/home/adria/Escritorio/rDock_CMTR_LC/2pxcA_model/inputs_sah

>  <Rbt.Executable>
rbdock ($Id: //depot/dev/client3/rdock/2013.1/src/exe/rbdock.cxx#4 $)

>  <Rbt.Library>
libRbt.so (2013.1, Build901 2013/11/27)

>  <Rbt.Parameter_File>
/home/adria/Escritorio/rDock_2013.1_src/data/scripts/dock.prm

>  <Rbt.Receptor>
sah_rdock.prm

>  <SCORE>
-213.422

>  <SCORE.INTER>
-15.1192

>  <SCORE.INTER.CONST>
1

>  <SCORE.INTER.POLAR>
-1.51448

>  <SCORE.INTER.REPUL>
0.254463

>  <SCORE.INTER.ROT>
4

>  <SCORE.INTER.VDW>
-20.6423

>  <SCORE.INTER.norm>
-0.503974

>  <SCORE.INTRA>
-191.345

>  <SCORE.INTRA.DIHEDRAL>
0.355837

>  <SCORE.INTRA.DIHEDRAL.0>
7.41924

>  <SCORE.INTRA.POLAR>
0

>  <SCORE.INTRA.POLAR.0>
0

>  <SCORE.INTRA.REPUL>
0

>  <SCORE.INTRA.REPUL.0>
0

>  <SCORE.INTRA.VDW>
-191.523

>  <SCORE.INTRA.VDW.0>
189.203

>  <SCORE.INTRA.norm>
-6.37818

>  <SCORE.RESTR>
0.0233811

>  <SCORE.RESTR.CAVITY>
0.0233811

>  <SCORE.RESTR.norm>
0.00077937

>  <SCORE.SYSTEM>
-6.98025

>  <SCORE.SYSTEM.CONST>
0

>  <SCORE.SYSTEM.DIHEDRAL>
5.68158

>  <SCORE.SYSTEM.POLAR>
-3.73416

>  <SCORE.SYSTEM.VDW>
2.87509

>  <SCORE.SYSTEM.norm>
-0.232675

>  <SCORE.heavy>
30

>  <SCORE.norm>
-7.11405

$$$$
F3406-2752
  rDOCK(R)          3D
libRbt.so/2013.1/901 2013/11/27
 31 34  0  0  0  0  0  0  0  0999 V2000
  -15.3375   18.8062  -16.7442 C   0  0  0  0  0  0
  -16.7332   17.1431  -17.1762 C   0  0  0  0  0  0
  -17.1666   16.3765  -18.6057 C   0  0  0  0  0  0
  -16.5085   15.0360  -18.7543 C   0  0  0  0  0  0
  -16.8748   14.0998  -17.6063 C   0  0  0  0  0  0
  -16.7768   14.6796  -16.1954 C   0  0  0  0  0  0
  -17.3751   16.0207  -16.0913 N   0  0  0  0  0  0
  -18.5049   16.1663  -15.1827 C   0  0  0  0  0  0
  -18.8144   15.2207  -14.4427 O   0  0  0  0  0  0
  -19.4051   17.3968  -14.9855 C   0  0  0  0  0  0
  -20.2163   17.7240  -13.9051 C   0  0  0  0  0  0
  -21.2017   16.8700  -13.3648 N   0  0  0  0  0  0
  -22.5932   17.1162  -13.1780 C   0  0  0  0  0  0
  -23.1454   18.2423  -14.4956 C   0  0  0  0  0  0
  -24.3782   19.4973  -14.1396 C   0  0  0  0  0  0
  -24.9669   19.7455  -12.4691 C   0  0  0  0  0  0
  -24.4605   18.6274  -11.1600 C   0  0  0  0  0  0
  -23.2505   17.3076  -11.4876 C   0  0  0  0  0  0
  -25.0977   20.1669  -15.2431 C   0  0  0  0  0  0
  -25.9678   20.9906  -14.9850 O   0  0  0  0  0  0
  -24.7889   19.7151  -16.6437 C   0  0  0  0  0  0
  -20.4318   19.0819  -13.5731 C   0  0  0  0  0  0
  -20.3368   20.0380  -14.5793 C   0  0  0  0  0  0
  -19.8644   19.6806  -15.7769 N   0  0  0  0  0  0
  -19.3303   18.4262  -15.9232 C   0  0  0  0  0  0
  -20.7132   21.3012  -14.3357 N   0  0  0  0  0  0
  -21.0774   21.6691  -13.0775 C   0  0  0  0  0  0
  -21.4827   23.0943  -12.8622 C   0  0  0  0  0  0
  -21.0974   20.7933  -12.0085 C   0  0  0  0  0  0
  -20.7815   19.4787  -12.2668 C   0  0  0  0  0  0
  -20.9565   15.8913  -13.2889 H   0  0  0  0  0  0
  1  2  1  0  0  0
  2  3  1  0  0  0
  2  7  1  0  0  0
  3  4  1  0  0  0
  4  5  1  0  0  0
  5  6  1  0  0  0
  6  7  1  0  0  0
  7  8  1  0  0  0
  8  9  2  0  0  0
  8 10  1  0  0  0
 10 11  2  0  0  0
 10 25  1  0  0  0
 11 12  1  0  0  0
 11 22  1  0  0  0
 12 13  1  0  0  0
 12 31  1  0  0  0
 13 14  2  0  0  0
 13 18  1  0  0  0
 14 15  1  0  0  0
 15 16  2  0  0  0
 15 19  1  0  0  0
 16 17  1  0  0  0
 17 18  2  0  0  0
 19 20  2  0  0  0
 19 21  1  0  0  0
 22 23  2  0  0  0
 22 30  1  0  0  0
 23 24  1  0  0  0
 23 26  1  0  0  0
 24 25  2  0  0  0
 26 27  2  0  0  0
 27 28  1  0  0  0
 27 29  1  0  0  0
 29 30  2  0  0  0
M  END
>  <CHROM.0>
-62.03752579,-73.10441105,72.11871366,61.40599212,167.94520112,-61.56784301
-156.42822112,-163.48752337

>  <CHROM.1>
-159.40811880,-123.91795070,31.27000408,177.63699245,-20.58610242,18.33229649
-14.75976934,-0.54141490,0.43712680,0.09044974

>  <Name>
F3406-2752

>  <RI>
2.05233e+07

>  <Rbt.Current_Directory>
/home/adria/Escritorio/rDock_CMTR_LC/2pxcA_model/inputs_sah

>  <Rbt.Executable>
rbdock ($Id: //depot/dev/client3/rdock/2013.1/src/exe/rbdock.cxx#4 $)

>  <Rbt.Library>
libRbt.so (2013.1, Build901 2013/11/27)

>  <Rbt.Parameter_File>
/home/adria/Escritorio/rDock_2013.1_src/data/scripts/dock.prm

>  <Rbt.Receptor>
sah_rdock.prm

>  <SCORE>
-202.01

>  <SCORE.INTER>
-10.1664

>  <SCORE.INTER.CONST>
1

>  <SCORE.INTER.POLAR>
0

>  <SCORE.INTER.REPUL>
0.00378184

>  <SCORE.INTER.ROT>
4

>  <SCORE.INTER.VDW>
-19.5853

>  <SCORE.INTER.norm>
-0.338881

>  <SCORE.INTRA>
-188.717

>  <SCORE.INTRA.DIHEDRAL>
7.41753

>  <SCORE.INTRA.DIHEDRAL.0>
7.41924

>  <SCORE.INTRA.POLAR>
0

>  <SCORE.INTRA.POLAR.0>
0

>  <SCORE.INTRA.REPUL>
0

>  <SCORE.INTRA.REPUL.0>
0

>  <SCORE.INTRA.VDW>
-192.426

>  <SCORE.INTRA.VDW.0>
189.203

>  <SCORE.INTRA.norm>
-6.29058

>  <SCORE.RESTR>
0

>  <SCORE.RESTR.CAVITY>
0

>  <SCORE.RESTR.norm>
0

>  <SCORE.SYSTEM>
-3.12616

>  <SCORE.SYSTEM.CONST>
0

>  <SCORE.SYSTEM.DIHEDRAL>
3.48832

>  <SCORE.SYSTEM.POLAR>
-4.0497

>  <SCORE.SYSTEM.REPUL>
0.0387215

>  <SCORE.SYSTEM.VDW>
8.70507

>  <SCORE.SYSTEM.norm>
-0.104205

>  <SCORE.heavy>
30

>  <SCORE.norm>
-6.73366

$$$$
F3406-2752
  rDOCK(R)          3D
libRbt.so/2013.1/901 2013/11/27
 31 34  0  0  0  0  0  0  0  0999 V2000
  -23.2030   18.6545  -14.2484 C   0  0  0  0  0  0
  -21.0745   19.2163  -14.0148 C   0  0  0  0  0  0
  -19.7668   18.4202  -13.3255 C   0  0  0  0  0  0
  -18.8516   17.8300  -14.3581 C   0  0  0  0  0  0
  -18.2928   18.9004  -15.2913 C   0  0  0  0  0  0
  -19.2981   19.9011  -15.8609 C   0  0  0  0  0  0
  -20.2235   20.4182  -14.8393 N   0  0  0  0  0  0
  -20.1871   21.8530  -14.5873 C   0  0  0  0  0  0
  -19.5068   22.5817  -15.3247 O   0  0  0  0  0  0
  -20.9258   22.6377  -13.4910 C   0  0  0  0  0  0
  -20.7188   22.6272  -12.1164 C   0  0  0  0  0  0
  -20.7064   21.4591  -11.3241 N   0  0  0  0  0  0
  -21.7619   20.5325  -11.0810 C   0  0  0  0  0  0
  -23.2321   21.1072  -11.9852 C   0  0  0  0  0  0
  -24.8626   20.8969  -11.2647 C   0  0  0  0  0  0
  -25.0476   20.2563   -9.6051 C   0  0  0  0  0  0
  -23.6153   19.6543   -8.7070 C   0  0  0  0  0  0
  -21.9474   19.8007   -9.4209 C   0  0  0  0  0  0
  -26.0694   21.0140  -12.1094 C   0  0  0  0  0  0
  -27.1488   20.6254  -11.6781 O   0  0  0  0  0  0
  -25.8830   21.5159  -13.5147 C   0  0  0  0  0  0
  -20.9664   23.7957  -11.3588 C   0  0  0  0  0  0
  -21.9026   24.7106  -11.8302 C   0  0  0  0  0  0
  -22.3985   24.5613  -13.0619 N   0  0  0  0  0  0
  -21.8433   23.6124  -13.8815 C   0  0  0  0  0  0
  -22.2904   25.7291  -11.0498 N   0  0  0  0  0  0
  -21.6853   25.9303   -9.8479 C   0  0  0  0  0  0
  -22.1547   27.0867   -9.0209 C   0  0  0  0  0  0
  -20.6775   25.1187   -9.3623 C   0  0  0  0  0  0
  -20.3246   24.0294  -10.1262 C   0  0  0  0  0  0
  -19.7965   21.1054  -11.0581 H   0  0  0  0  0  0
  1  2  1  0  0  0
  2  3  1  0  0  0
  2  7  1  0  0  0
  3  4  1  0  0  0
  4  5  1  0  0  0
  5  6  1  0  0  0
  6  7  1  0  0  0
  7  8  1  0  0  0
  8  9  2  0  0  0
  8 10  1  0  0  0
 10 11  2  0  0  0
 10 25  1  0  0  0
 11 12  1  0  0  0
 11 22  1  0  0  0
 12 13  1  0  0  0
 12 31  1  0  0  0
 13 14  2  0  0  0
 13 18  1  0  0  0
 14 15  1  0  0  0
 15 16  2  0  0  0
 15 19  1  0  0  0
 16 17  1  0  0  0
 17 18  2  0  0  0
 19 20  2  0  0  0
 19 21  1  0  0  0
 22 23  2  0  0  0
 22 30  1  0  0  0
 23 24  1  0  0  0
 23 26  1  0  0  0
 24 25  2  0  0  0
 26 27  2  0  0  0
 27 28  1  0  0  0
 27 29  1  0  0  0
 29 30  2  0  0  0
M  END
>  <CHROM.0>
-66.53158989,66.79479754,-164.56772108,64.24972968,-30.43294988,63.30226316
-164.70118991,-163.85332384

>  <CHROM.1>
69.04511759,-63.27213528,-0.40148883,166.26166967,-21.89125974,21.78231646
-12.30596098,1.10684582,-0.48858546,-2.65520255

>  <Name>
F3406-2752

>  <RI>
2.05233e+07

>  <Rbt.Current_Directory>
/home/adria/Escritorio/rDock_CMTR_LC/2pxcA_model/inputs_sah

>  <Rbt.Executable>
rbdock ($Id: //depot/dev/client3/rdock/2013.1/src/exe/rbdock.cxx#4 $)

>  <Rbt.Library>
libRbt.so (2013.1, Build901 2013/11/27)

>  <Rbt.Parameter_File>
/home/adria/Escritorio/rDock_2013.1_src/data/scripts/dock.prm

>  <Rbt.Receptor>
sah_rdock.prm

>  <SCORE>
-192.669

>  <SCORE.INTER>
-2.64927

>  <SCORE.INTER.CONST>
1

>  <SCORE.INTER.POLAR>
-0.0562457

>  <SCORE.INTER.REPUL>
0

>  <SCORE.INTER.ROT>
4

>  <SCORE.INTER.VDW>
-11.858

>  <SCORE.INTER.norm>
-0.0883092

>  <SCORE.INTRA>
-183.288

>  <SCORE.INTRA.DIHEDRAL>
18.6595

>  <SCORE.INTRA.DIHEDRAL.0>
7.41924

>  <SCORE.INTRA.POLAR>
0

>  <SCORE.INTRA.POLAR.0>
0

>  <SCORE.INTRA.REPUL>
0

>  <SCORE.INTRA.REPUL.0>
0

>  <SCORE.INTRA.VDW>
-192.618

>  <SCORE.INTRA.VDW.0>
189.203

>  <SCORE.INTRA.norm>
-6.1096

>  <SCORE.RESTR>
0.0487762

>  <SCORE.RESTR.CAVITY>
0.0487762

>  <SCORE.RESTR.norm>
0.00162587

>  <SCORE.SYSTEM>
-6.78033

>  <SCORE.SYSTEM.CONST>
0

>  <SCORE.SYSTEM.DIHEDRAL>
5.54311

>  <SCORE.SYSTEM.POLAR>
-3.45439

>  <SCORE.SYSTEM.VDW>
2.19303

>  <SCORE.SYSTEM.norm>
-0.226011

>  <SCORE.heavy>
30

>  <SCORE.norm>
-6.4223

$$$$
F3406-2752
  rDOCK(R)          3D
libRbt.so/2013.1/901 2013/11/27
 31 34  0  0  0  0  0  0  0  0999 V2000
  -22.2922   17.8798  -17.0220 C   0  0  0  0  0  0
  -20.1261   17.8368  -16.5676 C   0  0  0  0  0  0
  -19.0291   16.5743  -16.4206 C   0  0  0  0  0  0
  -18.1440   16.4467  -17.6258 C   0  0  0  0  0  0
  -17.3413   17.7212  -17.8709 C   0  0  0  0  0  0
  -18.1168   19.0373  -17.8143 C   0  0  0  0  0  0
  -19.0231   19.1113  -16.6565 N   0  0  0  0  0  0
  -18.7695   20.1734  -15.6917 C   0  0  0  0  0  0
  -17.9200   21.0387  -15.9509 O   0  0  0  0  0  0
  -19.4540   20.3981  -14.3337 C   0  0  0  0  0  0
  -20.6060   21.1198  -14.0427 C   0  0  0  0  0  0
  -20.8142   22.4660  -14.4125 N   0  0  0  0  0  0
  -21.3745   23.5278  -13.6443 C   0  0  0  0  0  0
  -20.3460   23.7498  -12.1603 C   0  0  0  0  0  0
  -21.1149   24.1821  -10.5971 C   0  0  0  0  0  0
  -22.8957   24.2589  -10.4502 C   0  0  0  0  0  0
  -23.9285   24.0746  -11.9062 C   0  0  0  0  0  0
  -23.1873   23.6861  -13.5226 C   0  0  0  0  0  0
  -20.2965   24.7161   -9.4886 C   0  0  0  0  0  0
  -20.8231   24.9488   -8.4066 O   0  0  0  0  0  0
  -18.8606   25.0477   -9.7875 C   0  0  0  0  0  0
  -21.4390   20.7142  -12.9741 C   0  0  0  0  0  0
  -20.8717   20.0130  -11.9148 C   0  0  0  0  0  0
  -19.6122   19.5794  -12.0190 N   0  0  0  0  0  0
  -18.9787   19.6907  -13.2300 C   0  0  0  0  0  0
  -21.5927   19.7770  -10.8097 N   0  0  0  0  0  0
  -22.9083   20.1220  -10.7725 C   0  0  0  0  0  0
  -23.6661   19.8293   -9.5148 C   0  0  0  0  0  0
  -23.5616   20.7304  -11.8276 C   0  0  0  0  0  0
  -22.8095   21.0407  -12.9379 C   0  0  0  0  0  0
  -20.3250   22.7866  -15.2382 H   0  0  0  0  0  0
  1  2  1  0  0  0
  2  3  1  0  0  0
  2  7  1  0  0  0
  3  4  1  0  0  0
  4  5  1  0  0  0
  5  6  1  0  0  0
  6  7  1  0  0  0
  7  8  1  0  0  0
  8  9  2  0  0  0
  8 10  1  0  0  0
 10 11  2  0  0  0
 10 25  1  0  0  0
 11 12  1  0  0  0
 11 22  1  0  0  0
 12 13  1  0  0  0
 12 31  1  0  0  0
 13 14  2  0  0  0
 13 18  1  0  0  0
 14 15  1  0  0  0
 15 16  2  0  0  0
 15 19  1  0  0  0
 16 17  1  0  0  0
 17 18  2  0  0  0
 19 20  2  0  0  0
 19 21  1  0  0  0
 22 23  2  0  0  0
 22 30  1  0  0  0
 23 24  1  0  0  0
 23 26  1  0  0  0
 24 25  2  0  0  0
 26 27  2  0  0  0
 27 28  1  0  0  0
 27 29  1  0  0  0
 29 30  2  0  0  0
M  END
>  <CHROM.0>
39.24689111,-171.55181124,111.64333329,61.60933526,169.13997472,62.38183251
83.35937192,-168.01917536

>  <CHROM.1>
-88.70142350,-137.20335001,59.67254952,-176.62906269,-20.62641445,20.95827452
-13.37348087,1.17566367,-0.59352900,-2.49638335

>  <Name>
F3406-2752

>  <RI>
2.05233e+07

>  <Rbt.Current_Directory>
/home/adria/Escritorio/rDock_CMTR_LC/2pxcA_model/inputs_sah

>  <Rbt.Executable>
rbdock ($Id: //depot/dev/client3/rdock/2013.1/src/exe/rbdock.cxx#4 $)

>  <Rbt.Library>
libRbt.so (2013.1, Build901 2013/11/27)

>  <Rbt.Parameter_File>
/home/adria/Escritorio/rDock_2013.1_src/data/scripts/dock.prm

>  <Rbt.Receptor>
sah_rdock.prm

>  <SCORE>
-184.739

>  <SCORE.INTER>
-7.18774

>  <SCORE.INTER.CONST>
1

>  <SCORE.INTER.POLAR>
0

>  <SCORE.INTER.REPUL>
0.612138

>  <SCORE.INTER.ROT>
4

>  <SCORE.INTER.VDW>
-19.6484

>  <SCORE.INTER.norm>
-0.239591

>  <SCORE.INTRA>
-180.801

>  <SCORE.INTRA.DIHEDRAL>
19.7473

>  <SCORE.INTRA.DIHEDRAL.0>
7.41924

>  <SCORE.INTRA.POLAR>
0

>  <SCORE.INTRA.POLAR.0>
0

>  <SCORE.INTRA.REPUL>
0

>  <SCORE.INTRA.REPUL.0>
0

>  <SCORE.INTRA.VDW>
-190.674

>  <SCORE.INTRA.VDW.0>
189.203

>  <SCORE.INTRA.norm>
-6.02669

>  <SCORE.RESTR>
0

>  <SCORE.RESTR.CAVITY>
0

>  <SCORE.RESTR.norm>
0

>  <SCORE.SYSTEM>
3.24957

>  <SCORE.SYSTEM.CONST>
0

>  <SCORE.SYSTEM.DIHEDRAL>
7.68803

>  <SCORE.SYSTEM.POLAR>
-4.09454

>  <SCORE.SYSTEM.REPUL>
0.125622

>  <SCORE.SYSTEM.VDW>
12.6989

>  <SCORE.SYSTEM.norm>
0.108319

>  <SCORE.heavy>
30

>  <SCORE.norm>
-6.15796

$$$$
F3406-2752
  rDOCK(R)          3D
libRbt.so/2013.1/901 2013/11/27
 31 34  0  0  0  0  0  0  0  0999 V2000
  -25.8570   21.3555  -12.4404 C   0  0  0  0  0  0
  -24.2131   21.8495  -11.0426 C   0  0  0  0  0  0
  -23.5956   23.3133  -10.4995 C   0  0  0  0  0  0
  -24.0429   23.6366   -9.1039 C   0  0  0  0  0  0
  -23.6076   22.5623   -8.1113 C   0  0  0  0  0  0
  -23.8656   21.1119   -8.5191 C   0  0  0  0  0  0
  -23.4750   20.8370   -9.9117 N   0  0  0  0  0  0
  -22.4296   19.8427  -10.1157 C   0  0  0  0  0  0
  -22.0268   19.1784   -9.1492 O   0  0  0  0  0  0
  -21.7299   19.4652  -11.4315 C   0  0  0  0  0  0
  -21.1949   20.2970  -12.4084 C   0  0  0  0  0  0
  -21.9074   21.3376  -13.0424 N   0  0  0  0  0  0
  -21.5887   22.7250  -13.1138 C   0  0  0  0  0  0
  -20.4654   23.1141  -11.7368 C   0  0  0  0  0  0
  -20.5967   24.6945  -10.8962 C   0  0  0  0  0  0
  -21.9124   25.8351  -11.3046 C   0  0  0  0  0  0
  -23.0122   25.4868  -12.6793 C   0  0  0  0  0  0
  -22.8820   23.9181  -13.5933 C   0  0  0  0  0  0
  -19.4913   25.1764  -10.0421 C   0  0  0  0  0  0
  -19.2244   24.5795   -9.0054 O   0  0  0  0  0  0
  -18.8123   26.4555  -10.4473 C   0  0  0  0  0  0
  -20.0724   19.8719  -13.1567 C   0  0  0  0  0  0
  -19.8668   18.5074  -13.3343 C   0  0  0  0  0  0
  -20.6137   17.6396  -12.6457 N   0  0  0  0  0  0
  -21.4392   18.1211  -11.6624 C   0  0  0  0  0  0
  -18.9232   18.0811  -14.1856 N   0  0  0  0  0  0
  -18.0953   18.9794  -14.7847 C   0  0  0  0  0  0
  -17.0561   18.4462  -15.7214 C   0  0  0  0  0  0
  -18.1785   20.3429  -14.5749 C   0  0  0  0  0  0
  -19.1912   20.7926  -13.7582 C   0  0  0  0  0  0
  -22.6177   21.0572  -13.7062 H   0  0  0  0  0  0
  1  2  1  0  0  0
  2  3  1  0  0  0
  2  7  1  0  0  0
  3  4  1  0  0  0
  4  5  1  0  0  0
  5  6  1  0  0  0
  6  7  1  0  0  0
  7  8  1  0  0  0
  8  9  2  0  0  0
  8 10  1  0  0  0
 10 11  2  0  0  0
 10 25  1  0  0  0
 11 12  1  0  0  0
 11 22  1  0  0  0
 12 13  1  0  0  0
 12 31  1  0  0  0
 13 14  2  0  0  0
 13 18  1  0  0  0
 14 15  1  0  0  0
 15 16  2  0  0  0
 15 19  1  0  0  0
 16 17  1  0  0  0
 17 18  2  0  0  0
 19 20  2  0  0  0
 19 21  1  0  0  0
 22 23  2  0  0  0
 22 30  1  0  0  0
 23 24  1  0  0  0
 23 26  1  0  0  0
 24 25  2  0  0  0
 26 27  2  0  0  0
 27 28  1  0  0  0
 27 29  1  0  0  0
 29 30  2  0  0  0
M  END
>  <CHROM.0>
-60.49685367,-70.29500041,107.54797956,65.84438016,27.81622315,56.73881730
-158.06214420,-160.56144491

>  <CHROM.1>
46.70649425,123.01405646,-21.90745713,-66.76603425,-21.33504515,21.59747681
-11.70052019,2.16788691,0.58289485,0.28320781

>  <Name>
F3406-2752

>  <RI>
2.05233e+07

>  <Rbt.Current_Directory>
/home/adria/Escritorio/rDock_CMTR_LC/2pxcA_model/inputs_sah

>  <Rbt.Executable>
rbdock ($Id: //depot/dev/client3/rdock/2013.1/src/exe/rbdock.cxx#4 $)

>  <Rbt.Library>
libRbt.so (2013.1, Build901 2013/11/27)

>  <Rbt.Parameter_File>
/home/adria/Escritorio/rDock_2013.1_src/data/scripts/dock.prm

>  <Rbt.Receptor>
sah_rdock.prm

>  <SCORE>
-198.775

>  <SCORE.INTER>
-20.7267

>  <SCORE.INTER.CONST>
1

>  <SCORE.INTER.POLAR>
-1.22043

>  <SCORE.INTER.REPUL>
0

>  <SCORE.INTER.ROT>
4

>  <SCORE.INTER.VDW>
-25.9773

>  <SCORE.INTER.norm>
-0.690891

>  <SCORE.INTRA>
-182.477

>  <SCORE.INTRA.DIHEDRAL>
20.7813

>  <SCORE.INTRA.DIHEDRAL.0>
7.41924

>  <SCORE.INTRA.POLAR>
0

>  <SCORE.INTRA.POLAR.0>
0

>  <SCORE.INTRA.REPUL>
0

>  <SCORE.INTRA.REPUL.0>
0

>  <SCORE.INTRA.VDW>
-192.867

>  <SCORE.INTRA.VDW.0>
189.203

>  <SCORE.INTRA.norm>
-6.08256

>  <SCORE.RESTR>
0

>  <SCORE.RESTR.CAVITY>
0

>  <SCORE.RESTR.norm>
0

>  <SCORE.SYSTEM>
4.42847

>  <SCORE.SYSTEM.CONST>
0

>  <SCORE.SYSTEM.DIHEDRAL>
9.54078

>  <SCORE.SYSTEM.POLAR>
-4.30296

>  <SCORE.SYSTEM.REPUL>
0.0333516

>  <SCORE.SYSTEM.VDW>
14.1214

>  <SCORE.SYSTEM.norm>
0.147616

>  <SCORE.heavy>
30

>  <SCORE.norm>
-6.62583

$$$$
F3406-2752
  rDOCK(R)          3D
libRbt.so/2013.1/901 2013/11/27
 31 34  0  0  0  0  0  0  0  0999 V2000
  -27.1658   22.6707  -11.1987 C   0  0  0  0  0  0
  -25.1044   22.2917  -10.4864 C   0  0  0  0  0  0
  -23.8415   23.3233  -10.0865 C   0  0  0  0  0  0
  -23.6630   23.4552   -8.6023 C   0  0  0  0  0  0
  -23.3739   22.1067   -7.9490 C   0  0  0  0  0  0
  -24.2761   20.9428   -8.3587 C   0  0  0  0  0  0
  -24.4847   20.8729   -9.8143 N   0  0  0  0  0  0
  -24.0167   19.6680  -10.4869 C   0  0  0  0  0  0
  -23.6092   18.7134   -9.8084 O   0  0  0  0  0  0
  -23.9707   19.3879  -11.9978 C   0  0  0  0  0  0
  -23.5782   18.2316  -12.6622 C   0  0  0  0  0  0
  -22.3386   17.5855  -12.4668 N   0  0  0  0  0  0
  -21.0374   18.0078  -12.8670 C   0  0  0  0  0  0
  -21.0718   19.8154  -13.0688 C   0  0  0  0  0  0
  -20.1182   20.5861  -14.3797 C   0  0  0  0  0  0
  -19.2458   19.5857  -15.5782 C   0  0  0  0  0  0
  -19.1719   17.8035  -15.3811 C   0  0  0  0  0  0
  -20.0824   16.9834  -14.0351 C   0  0  0  0  0  0
  -19.8399   22.0369  -14.3422 C   0  0  0  0  0  0
  -18.9921   22.5090  -15.0909 O   0  0  0  0  0  0
  -20.5509   22.8500  -13.2959 C   0  0  0  0  0  0
  -24.1817   17.8893  -13.8948 C   0  0  0  0  0  0
  -24.6986   18.9072  -14.6901 C   0  0  0  0  0  0
  -24.7832   20.1447  -14.1933 N   0  0  0  0  0  0
  -24.5176   20.3361  -12.8617 C   0  0  0  0  0  0
  -25.1085   18.6355  -15.9370 N   0  0  0  0  0  0
  -25.1246   17.3491  -16.3798 C   0  0  0  0  0  0
  -25.5977   17.1038  -17.7790 C   0  0  0  0  0  0
  -24.7200   16.2772  -15.6069 C   0  0  0  0  0  0
  -24.2302   16.5569  -14.3512 C   0  0  0  0  0  0
  -22.3228   16.8394  -11.7835 H   0  0  0  0  0  0
  1  2  1  0  0  0
  2  3  1  0  0  0
  2  7  1  0  0  0
  3  4  1  0  0  0
  4  5  1  0  0  0
  5  6  1  0  0  0
  6  7  1  0  0  0
  7  8  1  0  0  0
  8  9  2  0  0  0
  8 10  1  0  0  0
 10 11  2  0  0  0
 10 25  1  0  0  0
 11 12  1  0  0  0
 11 22  1  0  0  0
 12 13  1  0  0  0
 12 31  1  0  0  0
 13 14  2  0  0  0
 13 18  1  0  0  0
 14 15  1  0  0  0
 15 16  2  0  0  0
 15 19  1  0  0  0
 16 17  1  0  0  0
 17 18  2  0  0  0
 19 20  2  0  0  0
 19 21  1  0  0  0
 22 23  2  0  0  0
 22 30  1  0  0  0
 23 24  1  0  0  0
 23 26  1  0  0  0
 24 25  2  0  0  0
 26 27  2  0  0  0
 27 28  1  0  0  0
 27 29  1  0  0  0
 29 30  2  0  0  0
M  END
>  <CHROM.0>
40.05850681,63.12706853,-12.81059291,-60.08780000,-30.63920297,-177.81786354
81.01571009,-160.08789837

>  <CHROM.1>
-177.26867848,-71.21130118,23.35289358,166.45500677,-23.09600800,19.81353049
-12.87586239,1.79440622,0.35062568,0.89093789

>  <Name>
F3406-2752

>  <RI>
2.05233e+07

>  <Rbt.Current_Directory>
/home/adria/Escritorio/rDock_CMTR_LC/2pxcA_model/inputs_sah

>  <Rbt.Executable>
rbdock ($Id: //depot/dev/client3/rdock/2013.1/src/exe/rbdock.cxx#4 $)

>  <Rbt.Library>
libRbt.so (2013.1, Build901 2013/11/27)

>  <Rbt.Parameter_File>
/home/adria/Escritorio/rDock_2013.1_src/data/scripts/dock.prm

>  <Rbt.Receptor>
sah_rdock.prm

>  <SCORE>
-194.716

>  <SCORE.INTER>
-6.98606

>  <SCORE.INTER.CONST>
1

>  <SCORE.INTER.POLAR>
-0.900054

>  <SCORE.INTER.REPUL>
0.310663

>  <SCORE.INTER.ROT>
4

>  <SCORE.INTER.VDW>
-14.8792

>  <SCORE.INTER.norm>
-0.232869

>  <SCORE.INTRA>
-185.552

>  <SCORE.INTRA.DIHEDRAL>
12.3311

>  <SCORE.INTRA.DIHEDRAL.0>
7.41924

>  <SCORE.INTRA.POLAR>
0

>  <SCORE.INTRA.POLAR.0>
0

>  <SCORE.INTRA.REPUL>
0

>  <SCORE.INTRA.REPUL.0>
0

>  <SCORE.INTRA.VDW>
-191.717

>  <SCORE.INTRA.VDW.0>
189.203

>  <SCORE.INTRA.norm>
-6.18506

>  <SCORE.RESTR>
0.0563787

>  <SCORE.RESTR.CAVITY>
0.0563787

>  <SCORE.RESTR.norm>
0.00187929

>  <SCORE.SYSTEM>
-2.23414

>  <SCORE.SYSTEM.CONST>
0

>  <SCORE.SYSTEM.DIHEDRAL>
10.0812

>  <SCORE.SYSTEM.POLAR>
-4.08033

>  <SCORE.SYSTEM.REPUL>
0.122999

>  <SCORE.SYSTEM.VDW>
5.9834

>  <SCORE.SYSTEM.norm>
-0.0744714

>  <SCORE.heavy>
30

>  <SCORE.norm>
-6.49052

$$$$
F3406-2752
  rDOCK(R)          3D
libRbt.so/2013.1/901 2013/11/27
 31 34  0  0  0  0  0  0  0  0999 V2000
  -17.3021   14.6984  -18.7037 C   0  0  0  0  0  0
  -16.3981   16.2403  -17.3976 C   0  0  0  0  0  0
  -15.1770   16.1698  -16.2475 C   0  0  0  0  0  0
  -13.8830   16.7342  -16.7565 C   0  0  0  0  0  0
  -14.0323   18.1947  -17.1733 C   0  0  0  0  0  0
  -15.2379   18.5342  -18.0495 C   0  0  0  0  0  0
  -16.4832   17.9179  -17.5629 N   0  0  0  0  0  0
  -17.5543   18.8247  -17.1708 C   0  0  0  0  0  0
  -17.4350   20.0383  -17.3959 O   0  0  0  0  0  0
  -18.8912   18.4717  -16.4990 C   0  0  0  0  0  0
  -20.0208   19.2636  -16.3275 C   0  0  0  0  0  0
  -20.0118   20.5397  -15.7243 N   0  0  0  0  0  0
  -19.9644   20.8736  -14.3394 C   0  0  0  0  0  0
  -20.9154   19.6195  -13.4272 C   0  0  0  0  0  0
  -21.8916   20.1020  -12.0003 C   0  0  0  0  0  0
  -22.0525   21.8252  -11.5493 C   0  0  0  0  0  0
  -21.0994   23.0757  -12.4145 C   0  0  0  0  0  0
  -20.0559   22.6241  -13.8359 C   0  0  0  0  0  0
  -22.3665   19.0800  -11.0445 C   0  0  0  0  0  0
  -22.3319   19.3149   -9.8421 O   0  0  0  0  0  0
  -22.7753   17.7461  -11.6057 C   0  0  0  0  0  0
  -21.3033   18.6673  -16.3198 C   0  0  0  0  0  0
  -21.4196   17.3398  -15.9199 C   0  0  0  0  0  0
  -20.3130   16.6134  -15.7384 N   0  0  0  0  0  0
  -19.1083   17.1485  -16.1161 C   0  0  0  0  0  0
  -22.6339   16.8058  -15.7274 N   0  0  0  0  0  0
  -23.7470   17.5261  -16.0331 C   0  0  0  0  0  0
  -25.0767   16.8773  -15.8036 C   0  0  0  0  0  0
  -23.7021   18.8149  -16.5302 C   0  0  0  0  0  0
  -22.4607   19.3949  -16.6621 C   0  0  0  0  0  0
  -19.8024   21.3224  -16.3303 H   0  0  0  0  0  0
  1  2  1  0  0  0
  2  3  1  0  0  0
  2  7  1  0  0  0
  3  4  1  0  0  0
  4  5  1  0  0  0
  5  6  1  0  0  0
  6  7  1  0  0  0
  7  8  1  0  0  0
  8  9  2  0  0  0
  8 10  1  0  0  0
 10 11  2  0  0  0
 10 25  1  0  0  0
 11 12  1  0  0  0
 11 22  1  0  0  0
 12 13  1  0  0  0
 12 31  1  0  0  0
 13 14  2  0  0  0
 13 18  1  0  0  0
 14 15  1  0  0  0
 15 16  2  0  0  0
 15 19  1  0  0  0
 16 17  1  0  0  0
 17 18  2  0  0  0
 19 20  2  0  0  0
 19 21  1  0  0  0
 22 23  2  0  0  0
 22 30  1  0  0  0
 23 24  1  0  0  0
 23 26  1  0  0  0
 24 25  2  0  0  0
 26 27  2  0  0  0
 27 28  1  0  0  0
 27 29  1  0  0  0
 29 30  2  0  0  0
M  END
>  <CHROM.0>
178.76066936,65.76953266,-163.11424992,62.78415184,-29.30914980,62.42731760
-35.37438517,-161.84982293

>  <CHROM.1>
-167.38045845,-78.65952818,-35.16904227,139.06484807,-19.80913984,18.60013417
-15.33988012,0.60784017,-0.23936500,-2.37721338

>  <Name>
F3406-2752

>  <RI>
2.05233e+07

>  <Rbt.Current_Directory>
/home/adria/Escritorio/rDock_CMTR_LC/2pxcA_model/inputs_sah

>  <Rbt.Executable>
rbdock ($Id: //depot/dev/client3/rdock/2013.1/src/exe/rbdock.cxx#4 $)

>  <Rbt.Library>
libRbt.so (2013.1, Build901 2013/11/27)

>  <Rbt.Parameter_File>
/home/adria/Escritorio/rDock_2013.1_src/data/scripts/dock.prm

>  <Rbt.Receptor>
sah_rdock.prm

>  <SCORE>
-207.929

>  <SCORE.INTER>
-14.6284

>  <SCORE.INTER.CONST>
1

>  <SCORE.INTER.POLAR>
-1.43301

>  <SCORE.INTER.REPUL>
0

>  <SCORE.INTER.ROT>
4

>  <SCORE.INTER.VDW>
-19.1562

>  <SCORE.INTER.norm>
-0.487615

>  <SCORE.INTRA>
-186.823

>  <SCORE.INTRA.DIHEDRAL>
10.5748

>  <SCORE.INTRA.DIHEDRAL.0>
7.41924

>  <SCORE.INTRA.POLAR>
0

>  <SCORE.INTRA.POLAR.0>
0

>  <SCORE.INTRA.REPUL>
0

>  <SCORE.INTRA.REPUL.0>
0

>  <SCORE.INTRA.VDW>
-192.111

>  <SCORE.INTRA.VDW.0>
189.203

>  <SCORE.INTRA.norm>
-6.22744

>  <SCORE.RESTR>
0

>  <SCORE.RESTR.CAVITY>
0

>  <SCORE.RESTR.norm>
0

>  <SCORE.SYSTEM>
-6.47698

>  <SCORE.SYSTEM.CONST>
0

>  <SCORE.SYSTEM.DIHEDRAL>
6.37847

>  <SCORE.SYSTEM.POLAR>
-3.66113

>  <SCORE.SYSTEM.VDW>
2.78162

>  <SCORE.SYSTEM.norm>
-0.215899

>  <SCORE.heavy>
30

>  <SCORE.norm>
-6.93096

$$$$
