F0533-0109
  rDOCK(R)          3D
libRbt.so/2013.1/901 2013/11/27
 29 32  0  0  0  0  0  0  0  0999 V2000
  -25.7898   20.1396  -18.5974 C   0  0  0  0  0  0
  -25.5167   18.7964  -18.1734 O   0  0  0  0  0  0
  -24.3934   18.6415  -17.4159 C   0  0  0  0  0  0
  -23.3017   17.9680  -17.8581 C   0  0  0  0  0  0
  -22.2038   17.8946  -17.0292 C   0  0  0  0  0  0
  -22.0398   18.4417  -15.7310 C   0  0  0  0  0  0
  -23.1806   19.1126  -15.2988 C   0  0  0  0  0  0
  -24.3374   19.1965  -16.1289 C   0  0  0  0  0  0
  -20.6527   18.5377  -14.9087 C   0  0  0  0  0  0
  -20.0330   20.0284  -15.1290 N   0  0  0  0  0  0
  -19.3655   20.3890  -16.8250 C   0  0  0  0  0  0
  -17.9013   19.0861  -17.6021 C   0  0  0  0  0  0
  -17.9773   17.3795  -16.5961 N   0  0  0  0  0  0
  -17.0091   15.7719  -16.7610 C   0  0  0  0  0  0
  -17.7158   14.6773  -15.3938 C   0  0  0  0  0  0
  -19.1637   15.6510  -14.4016 C   0  0  0  0  0  0
  -19.3189   17.3223  -15.0945 C   0  0  0  0  0  0
  -19.5197   20.5551  -13.8902 C   0  0  0  0  0  0
  -18.1507   20.0107  -13.0491 S   0  0  0  0  0  0
  -20.0297   21.6851  -13.3074 N   0  0  0  0  0  0
  -20.9539   22.7225  -13.6857 C   0  0  0  0  0  0
  -20.8528   23.9239  -12.8490 C   0  0  0  0  0  0
  -21.2803   23.5060  -11.1271 C   0  0  0  0  0  0
  -21.0545   24.7455   -9.5967 C   0  0  0  0  0  0
  -21.9699   24.9177   -8.2529 C   0  0  0  0  0  0
  -23.0800   23.8492   -8.3624 C   0  0  0  0  0  0
  -23.3087   22.4590   -9.8825 C   0  0  0  0  0  0
  -22.3746   22.4002  -11.1730 C   0  0  0  0  0  0
  -19.4803   21.9629  -12.5019 H   0  0  0  0  0  0
  1  2  1  0  0  0
  2  3  1  0  0  0
  3  4  2  0  0  0
  3  8  1  0  0  0
  4  5  1  0  0  0
  5  6  2  0  0  0
  6  7  1  0  0  0
  6  9  1  0  0  0
  7  8  2  0  0  0
  9 10  1  0  0  0
  9 17  1  0  0  0
 10 11  1  0  0  0
 10 18  1  0  0  0
 11 12  1  0  0  0
 12 13  1  0  0  0
 13 14  1  0  0  0
 13 17  1  0  0  0
 14 15  2  0  0  0
 15 16  1  0  0  0
 16 17  2  0  0  0
 18 19  2  0  0  0
 18 20  1  0  0  0
 20 21  1  0  0  0
 20 29  1  0  0  0
 21 22  1  0  0  0
 22 23  1  0  0  0
 23 24  2  0  0  0
 23 28  1  0  0  0
 24 25  1  0  0  0
 25 26  2  0  0  0
 26 27  1  0  0  0
 27 28  2  0  0  0
M  END
>  <CHROM.0>
-177.77109803,-73.55183050,-166.71144327,67.29823004,-30.78589083,-54.45172500
-156.27788588,-158.24352521

>  <CHROM.1>
-112.50471308,96.69401838,69.34744852,-162.54701724,-62.81135712,171.55573553
-21.03618797,20.00819745,-14.42040612,1.44718779,0.35241873,-2.27483650

>  <Name>
F0533-0109

>  <RI>
3.44907e+07

>  <Rbt.Current_Directory>
/home/adria/Escritorio/rDock_CMTR_LC/2pxcA_model/inputs_sah

>  <Rbt.Executable>
rbdock ($Id: //depot/dev/client3/rdock/2013.1/src/exe/rbdock.cxx#4 $)

>  <Rbt.Library>
libRbt.so (2013.1, Build901 2013/11/27)

>  <Rbt.Parameter_File>
/home/adria/Escritorio/rDock_2013.1_src/data/scripts/dock.prm

>  <Rbt.Receptor>
sah_rdock.prm

>  <SCORE>
-391.112

>  <SCORE.INTER>
-8.38735

>  <SCORE.INTER.CONST>
1

>  <SCORE.INTER.POLAR>
-0.288999

>  <SCORE.INTER.REPUL>
0

>  <SCORE.INTER.ROT>
6

>  <SCORE.INTER.VDW>
-18.8048

>  <SCORE.INTER.norm>
-0.299548

>  <SCORE.INTRA>
-375.559

>  <SCORE.INTRA.DIHEDRAL>
2.14118

>  <SCORE.INTRA.DIHEDRAL.0>
6.4118

>  <SCORE.INTRA.POLAR>
0

>  <SCORE.INTRA.POLAR.0>
0

>  <SCORE.INTRA.REPUL>
0

>  <SCORE.INTRA.REPUL.0>
0

>  <SCORE.INTRA.VDW>
-376.63

>  <SCORE.INTRA.VDW.0>
375.96

>  <SCORE.INTRA.norm>
-13.4128

>  <SCORE.RESTR>
0

>  <SCORE.RESTR.CAVITY>
0

>  <SCORE.RESTR.norm>
0

>  <SCORE.SYSTEM>
-7.16539

>  <SCORE.SYSTEM.CONST>
0

>  <SCORE.SYSTEM.DIHEDRAL>
6.97766

>  <SCORE.SYSTEM.POLAR>
-4.03838

>  <SCORE.SYSTEM.REPUL>
0.0395061

>  <SCORE.SYSTEM.VDW>
2.87875

>  <SCORE.SYSTEM.norm>
-0.255907

>  <SCORE.heavy>
28

>  <SCORE.norm>
-13.9683

$$$$
F0533-0109
  rDOCK(R)          3D
libRbt.so/2013.1/901 2013/11/27
 29 32  0  0  0  0  0  0  0  0999 V2000
  -24.8948   17.9591  -17.4589 C   0  0  0  0  0  0
  -25.5994   17.9834  -16.2093 O   0  0  0  0  0  0
  -25.1090   18.8533  -15.2807 C   0  0  0  0  0  0
  -23.9543   18.6259  -14.6055 C   0  0  0  0  0  0
  -23.5262   19.5817  -13.7104 C   0  0  0  0  0  0
  -24.1382   20.8173  -13.3784 C   0  0  0  0  0  0
  -25.3275   21.0150  -14.0748 C   0  0  0  0  0  0
  -25.8034   20.0393  -14.9999 C   0  0  0  0  0  0
  -23.4706   22.0058  -12.5117 C   0  0  0  0  0  0
  -21.9997   21.5098  -12.0168 N   0  0  0  0  0  0
  -21.9840   20.1854  -10.7137 C   0  0  0  0  0  0
  -23.0486   20.5489   -8.9305 C   0  0  0  0  0  0
  -24.3605   21.9977   -9.2628 N   0  0  0  0  0  0
  -25.6555   22.8065   -8.1595 C   0  0  0  0  0  0
  -26.4543   24.1028   -9.2769 C   0  0  0  0  0  0
  -25.6290   24.0484  -11.1058 C   0  0  0  0  0  0
  -24.3179   22.7921  -11.1136 C   0  0  0  0  0  0
  -21.0313   22.5672  -12.1574 C   0  0  0  0  0  0
  -20.6869   23.7813  -11.0238 S   0  0  0  0  0  0
  -20.1575   22.6250  -13.2109 N   0  0  0  0  0  0
  -19.7700   21.7517  -14.2882 C   0  0  0  0  0  0
  -19.0291   20.5675  -13.8383 C   0  0  0  0  0  0
  -18.3501   19.6873  -15.2826 C   0  0  0  0  0  0
  -16.6957   20.2262  -16.2324 C   0  0  0  0  0  0
  -15.5613   19.2973  -16.9560 C   0  0  0  0  0  0
  -16.0553   17.8413  -16.8080 C   0  0  0  0  0  0
  -17.8223   17.2223  -15.9192 C   0  0  0  0  0  0
  -18.8477   18.2144  -15.2080 C   0  0  0  0  0  0
  -19.4856   23.3745  -13.0900 H   0  0  0  0  0  0
  1  2  1  0  0  0
  2  3  1  0  0  0
  3  4  2  0  0  0
  3  8  1  0  0  0
  4  5  1  0  0  0
  5  6  2  0  0  0
  6  7  1  0  0  0
  6  9  1  0  0  0
  7  8  2  0  0  0
  9 10  1  0  0  0
  9 17  1  0  0  0
 10 11  1  0  0  0
 10 18  1  0  0  0
 11 12  1  0  0  0
 12 13  1  0  0  0
 13 14  1  0  0  0
 13 17  1  0  0  0
 14 15  2  0  0  0
 15 16  1  0  0  0
 16 17  2  0  0  0
 18 19  2  0  0  0
 18 20  1  0  0  0
 20 21  1  0  0  0
 20 29  1  0  0  0
 21 22  1  0  0  0
 22 23  1  0  0  0
 23 24  2  0  0  0
 23 28  1  0  0  0
 24 25  1  0  0  0
 25 26  2  0  0  0
 26 27  1  0  0  0
 27 28  2  0  0  0
M  END
>  <CHROM.0>
-61.65881085,66.40157240,-158.59480540,63.96737725,-30.78782071,61.21329611
-36.85468602,-44.90912105

>  <CHROM.1>
-73.43737490,-2.92620636,86.74429212,-68.47504144,-170.52380660,80.25973362
-22.06403272,20.79816181,-13.24722139,0.76143206,-0.09376469,-2.24121646

>  <Name>
F0533-0109

>  <RI>
3.44907e+07

>  <Rbt.Current_Directory>
/home/adria/Escritorio/rDock_CMTR_LC/2pxcA_model/inputs_sah

>  <Rbt.Executable>
rbdock ($Id: //depot/dev/client3/rdock/2013.1/src/exe/rbdock.cxx#4 $)

>  <Rbt.Library>
libRbt.so (2013.1, Build901 2013/11/27)

>  <Rbt.Parameter_File>
/home/adria/Escritorio/rDock_2013.1_src/data/scripts/dock.prm

>  <Rbt.Receptor>
sah_rdock.prm

>  <SCORE>
-391.391

>  <SCORE.INTER>
-9.88624

>  <SCORE.INTER.CONST>
1

>  <SCORE.INTER.POLAR>
-0.134717

>  <SCORE.INTER.REPUL>
0.00755818

>  <SCORE.INTER.ROT>
6

>  <SCORE.INTER.VDW>
-20.866

>  <SCORE.INTER.norm>
-0.35308

>  <SCORE.INTRA>
-376.742

>  <SCORE.INTRA.DIHEDRAL>
3.16941

>  <SCORE.INTRA.DIHEDRAL.0>
6.4118

>  <SCORE.INTRA.POLAR>
0

>  <SCORE.INTRA.POLAR.0>
0

>  <SCORE.INTRA.REPUL>
0

>  <SCORE.INTRA.REPUL.0>
0

>  <SCORE.INTRA.VDW>
-378.327

>  <SCORE.INTRA.VDW.0>
375.96

>  <SCORE.INTRA.norm>
-13.4551

>  <SCORE.RESTR>
0

>  <SCORE.RESTR.CAVITY>
0

>  <SCORE.RESTR.norm>
0

>  <SCORE.SYSTEM>
-4.76251

>  <SCORE.SYSTEM.CONST>
0

>  <SCORE.SYSTEM.DIHEDRAL>
8.32152

>  <SCORE.SYSTEM.POLAR>
-3.30987

>  <SCORE.SYSTEM.REPUL>
0.0247433

>  <SCORE.SYSTEM.VDW>
2.20656

>  <SCORE.SYSTEM.norm>
-0.17009

>  <SCORE.heavy>
28

>  <SCORE.norm>
-13.9782

$$$$
F0533-0109
  rDOCK(R)          3D
libRbt.so/2013.1/901 2013/11/27
 29 32  0  0  0  0  0  0  0  0999 V2000
  -23.2576   27.0420  -12.4831 C   0  0  0  0  0  0
  -23.2873   26.0727  -13.5406 O   0  0  0  0  0  0
  -23.1437   24.7753  -13.1460 C   0  0  0  0  0  0
  -24.1590   23.8772  -13.2062 C   0  0  0  0  0  0
  -23.9042   22.5814  -12.8142 C   0  0  0  0  0  0
  -22.6888   22.0257  -12.3391 C   0  0  0  0  0  0
  -21.6712   22.9736  -12.2737 C   0  0  0  0  0  0
  -21.9063   24.3259  -12.6617 C   0  0  0  0  0  0
  -22.3805   20.4539  -12.1297 C   0  0  0  0  0  0
  -22.2602   19.7591  -13.5985 N   0  0  0  0  0  0
  -23.8457   19.5971  -14.5537 C   0  0  0  0  0  0
  -25.4544   18.5993  -13.6255 C   0  0  0  0  0  0
  -25.1334   18.5678  -11.6694 N   0  0  0  0  0  0
  -26.1474   17.8903  -10.2337 C   0  0  0  0  0  0
  -25.0926   18.2747   -8.7151 C   0  0  0  0  0  0
  -23.4134   19.2309   -9.2583 C   0  0  0  0  0  0
  -23.3960   19.3906  -11.0671 C   0  0  0  0  0  0
  -21.1534   18.8377  -13.6374 C   0  0  0  0  0  0
  -19.9794   18.6150  -12.4334 S   0  0  0  0  0  0
  -21.0054   17.9123  -14.6367 N   0  0  0  0  0  0
  -21.8080   17.4249  -15.7284 C   0  0  0  0  0  0
  -21.5233   18.0947  -17.0028 C   0  0  0  0  0  0
  -19.7401   18.4533  -17.1188 C   0  0  0  0  0  0
  -18.9332   20.2133  -16.6937 C   0  0  0  0  0  0
  -17.4824   20.5586  -16.0233 C   0  0  0  0  0  0
  -16.7841   19.1972  -15.8113 C   0  0  0  0  0  0
  -17.5304   17.3340  -16.3285 C   0  0  0  0  0  0
  -18.9808   17.1051  -16.9490 C   0  0  0  0  0  0
  -20.2319   17.2855  -14.4451 H   0  0  0  0  0  0
  1  2  1  0  0  0
  2  3  1  0  0  0
  3  4  2  0  0  0
  3  8  1  0  0  0
  4  5  1  0  0  0
  5  6  2  0  0  0
  6  7  1  0  0  0
  6  9  1  0  0  0
  7  8  2  0  0  0
  9 10  1  0  0  0
  9 17  1  0  0  0
 10 11  1  0  0  0
 10 18  1  0  0  0
 11 12  1  0  0  0
 12 13  1  0  0  0
 13 14  1  0  0  0
 13 17  1  0  0  0
 14 15  2  0  0  0
 15 16  1  0  0  0
 16 17  2  0  0  0
 18 19  2  0  0  0
 18 20  1  0  0  0
 20 21  1  0  0  0
 20 29  1  0  0  0
 21 22  1  0  0  0
 22 23  1  0  0  0
 23 24  2  0  0  0
 23 28  1  0  0  0
 24 25  1  0  0  0
 25 26  2  0  0  0
 26 27  1  0  0  0
 27 28  2  0  0  0
M  END
>  <CHROM.0>
-58.16574301,-72.49827821,-9.34945411,64.04300716,-30.12319734,-58.02113765
128.70965679,-158.35179068

>  <CHROM.1>
110.38127239,70.59941447,-7.76453200,95.46133137,36.44097452,-98.15066087
-21.93319643,20.27889050,-13.51824541,-2.54628610,-0.72688656,3.09889638

>  <Name>
F0533-0109

>  <RI>
3.44907e+07

>  <Rbt.Current_Directory>
/home/adria/Escritorio/rDock_CMTR_LC/2pxcA_model/inputs_sah

>  <Rbt.Executable>
rbdock ($Id: //depot/dev/client3/rdock/2013.1/src/exe/rbdock.cxx#4 $)

>  <Rbt.Library>
libRbt.so (2013.1, Build901 2013/11/27)

>  <Rbt.Parameter_File>
/home/adria/Escritorio/rDock_2013.1_src/data/scripts/dock.prm

>  <Rbt.Receptor>
sah_rdock.prm

>  <SCORE>
-386.981

>  <SCORE.INTER>
-6.38414

>  <SCORE.INTER.CONST>
1

>  <SCORE.INTER.POLAR>
-1.48551

>  <SCORE.INTER.REPUL>
0.223921

>  <SCORE.INTER.ROT>
6

>  <SCORE.INTER.VDW>
-13.853

>  <SCORE.INTER.norm>
-0.228005

>  <SCORE.INTRA>
-376.431

>  <SCORE.INTRA.DIHEDRAL>
3.30567

>  <SCORE.INTRA.DIHEDRAL.0>
6.4118

>  <SCORE.INTRA.POLAR>
0

>  <SCORE.INTRA.POLAR.0>
0

>  <SCORE.INTRA.REPUL>
0

>  <SCORE.INTRA.REPUL.0>
0

>  <SCORE.INTRA.VDW>
-378.084

>  <SCORE.INTRA.VDW.0>
375.96

>  <SCORE.INTRA.norm>
-13.444

>  <SCORE.RESTR>
0.384828

>  <SCORE.RESTR.CAVITY>
0.384828

>  <SCORE.RESTR.norm>
0.0137438

>  <SCORE.SYSTEM>
-4.54988

>  <SCORE.SYSTEM.CONST>
0

>  <SCORE.SYSTEM.DIHEDRAL>
11.8865

>  <SCORE.SYSTEM.POLAR>
-4.30376

>  <SCORE.SYSTEM.REPUL>
0.0376273

>  <SCORE.SYSTEM.VDW>
3.95153

>  <SCORE.SYSTEM.norm>
-0.162496

>  <SCORE.heavy>
28

>  <SCORE.norm>
-13.8207

$$$$
F0533-0109
  rDOCK(R)          3D
libRbt.so/2013.1/901 2013/11/27
 29 32  0  0  0  0  0  0  0  0999 V2000
  -23.3530   27.3332  -12.5245 C   0  0  0  0  0  0
  -22.1557   26.7767  -11.9628 O   0  0  0  0  0  0
  -22.0954   25.4144  -11.9528 C   0  0  0  0  0  0
  -21.2708   24.7142  -12.7719 C   0  0  0  0  0  0
  -21.2597   23.3409  -12.6628 C   0  0  0  0  0  0
  -22.0120   22.5191  -11.7852 C   0  0  0  0  0  0
  -22.8591   23.2640  -10.9692 C   0  0  0  0  0  0
  -22.9021   24.6864  -11.0658 C   0  0  0  0  0  0
  -21.7801   20.9411  -11.5286 C   0  0  0  0  0  0
  -21.8766   20.1732  -12.9623 N   0  0  0  0  0  0
  -23.5702   20.0762  -13.7204 C   0  0  0  0  0  0
  -25.1182   19.2342  -12.5628 C   0  0  0  0  0  0
  -24.5724   19.2706  -10.6572 N   0  0  0  0  0  0
  -25.4514   18.7304   -9.0810 C   0  0  0  0  0  0
  -24.2038   19.1112   -7.7153 C   0  0  0  0  0  0
  -22.5434   19.9245   -8.4969 C   0  0  0  0  0  0
  -22.7284   19.9996  -10.3018 C   0  0  0  0  0  0
  -20.8418   19.1775  -13.0778 C   0  0  0  0  0  0
  -21.0111   17.5083  -12.8276 S   0  0  0  0  0  0
  -19.5909   19.4727  -13.5520 N   0  0  0  0  0  0
  -18.9604   20.6003  -14.1880 C   0  0  0  0  0  0
  -18.6612   20.3744  -15.6069 C   0  0  0  0  0  0
  -17.1187   19.4156  -15.7601 C   0  0  0  0  0  0
  -17.0544   17.4461  -15.9760 C   0  0  0  0  0  0
  -16.0038   16.5259  -16.8262 C   0  0  0  0  0  0
  -14.9769   17.5103  -17.4283 C   0  0  0  0  0  0
  -14.9298   19.5643  -17.1553 C   0  0  0  0  0  0
  -16.0300   20.3707  -16.3303 C   0  0  0  0  0  0
  -19.0318   18.6339  -13.6603 H   0  0  0  0  0  0
  1  2  1  0  0  0
  2  3  1  0  0  0
  3  4  2  0  0  0
  3  8  1  0  0  0
  4  5  1  0  0  0
  5  6  2  0  0  0
  6  7  1  0  0  0
  6  9  1  0  0  0
  7  8  2  0  0  0
  9 10  1  0  0  0
  9 17  1  0  0  0
 10 11  1  0  0  0
 10 18  1  0  0  0
 11 12  1  0  0  0
 12 13  1  0  0  0
 13 14  1  0  0  0
 13 17  1  0  0  0
 14 15  2  0  0  0
 15 16  1  0  0  0
 16 17  2  0  0  0
 18 19  2  0  0  0
 18 20  1  0  0  0
 20 21  1  0  0  0
 20 29  1  0  0  0
 21 22  1  0  0  0
 22 23  1  0  0  0
 23 24  2  0  0  0
 23 28  1  0  0  0
 24 25  1  0  0  0
 25 26  2  0  0  0
 26 27  1  0  0  0
 27 28  2  0  0  0
M  END
>  <CHROM.0>
157.84701803,-167.48678993,-167.00331252,-69.00940218,168.28868056,57.82377884
-157.14964574,-166.78025752

>  <CHROM.1>
108.43631838,-56.55040965,99.88432053,-108.52688029,-80.90802343,95.69860128
-20.92849848,20.72645639,-12.90951955,-2.73012247,-0.69391471,3.07521323

>  <Name>
F0533-0109

>  <RI>
3.44907e+07

>  <Rbt.Current_Directory>
/home/adria/Escritorio/rDock_CMTR_LC/2pxcA_model/inputs_sah

>  <Rbt.Executable>
rbdock ($Id: //depot/dev/client3/rdock/2013.1/src/exe/rbdock.cxx#4 $)

>  <Rbt.Library>
libRbt.so (2013.1, Build901 2013/11/27)

>  <Rbt.Parameter_File>
/home/adria/Escritorio/rDock_2013.1_src/data/scripts/dock.prm

>  <Rbt.Receptor>
sah_rdock.prm

>  <SCORE>
-384.835

>  <SCORE.INTER>
-8.53173

>  <SCORE.INTER.CONST>
1

>  <SCORE.INTER.POLAR>
-2.49988

>  <SCORE.INTER.REPUL>
0

>  <SCORE.INTER.ROT>
6

>  <SCORE.INTER.VDW>
-11.4321

>  <SCORE.INTER.norm>
-0.304705

>  <SCORE.INTRA>
-376.712

>  <SCORE.INTRA.DIHEDRAL>
3.52459

>  <SCORE.INTRA.DIHEDRAL.0>
6.4118

>  <SCORE.INTRA.POLAR>
0

>  <SCORE.INTRA.POLAR.0>
0

>  <SCORE.INTRA.REPUL>
0

>  <SCORE.INTRA.REPUL.0>
0

>  <SCORE.INTRA.VDW>
-378.474

>  <SCORE.INTRA.VDW.0>
375.96

>  <SCORE.INTRA.norm>
-13.454

>  <SCORE.RESTR>
0.103933

>  <SCORE.RESTR.CAVITY>
0.103933

>  <SCORE.RESTR.norm>
0.0037119

>  <SCORE.SYSTEM>
0.304007

>  <SCORE.SYSTEM.CONST>
0

>  <SCORE.SYSTEM.DIHEDRAL>
5.76198

>  <SCORE.SYSTEM.POLAR>
-3.54187

>  <SCORE.SYSTEM.VDW>
9.46536

>  <SCORE.SYSTEM.norm>
0.0108574

>  <SCORE.heavy>
28

>  <SCORE.norm>
-13.7441

$$$$
F0533-0109
  rDOCK(R)          3D
libRbt.so/2013.1/901 2013/11/27
 29 32  0  0  0  0  0  0  0  0999 V2000
  -15.6881   14.5402  -17.9407 C   0  0  0  0  0  0
  -16.2425   14.4957  -16.6181 O   0  0  0  0  0  0
  -17.0042   15.5717  -16.2691 C   0  0  0  0  0  0
  -16.5101   16.8348  -16.2327 C   0  0  0  0  0  0
  -17.3690   17.8589  -15.8989 C   0  0  0  0  0  0
  -18.7480   17.7845  -15.5758 C   0  0  0  0  0  0
  -19.2219   16.4757  -15.6062 C   0  0  0  0  0  0
  -18.3552   15.3923  -15.9371 C   0  0  0  0  0  0
  -19.7598   19.0358  -15.4350 C   0  0  0  0  0  0
  -19.6220   19.6341  -13.9259 N   0  0  0  0  0  0
  -20.3135   18.5749  -12.5650 C   0  0  0  0  0  0
  -22.3290   17.9744  -12.7150 C   0  0  0  0  0  0
  -22.9058   18.1661  -14.6020 N   0  0  0  0  0  0
  -24.5346   17.7881  -15.4696 C   0  0  0  0  0  0
  -24.2146   18.2799  -17.2647 C   0  0  0  0  0  0
  -22.3335   18.9468  -17.4786 C   0  0  0  0  0  0
  -21.5210   18.9221  -15.8547 C   0  0  0  0  0  0
  -19.6043   21.0745  -13.9483 C   0  0  0  0  0  0
  -19.1861   22.0610  -15.2634 S   0  0  0  0  0  0
  -20.0717   21.8291  -12.9048 N   0  0  0  0  0  0
  -20.8040   21.5816  -11.6899 C   0  0  0  0  0  0
  -22.2013   22.0256  -11.7533 C   0  0  0  0  0  0
  -22.9383   21.9611  -10.0875 C   0  0  0  0  0  0
  -23.9857   23.4380   -9.2807 C   0  0  0  0  0  0
  -25.2697   23.3726   -8.2706 C   0  0  0  0  0  0
  -25.5103   21.8719   -7.9954 C   0  0  0  0  0  0
  -24.3890   20.2886   -8.7244 C   0  0  0  0  0  0
  -23.1704   20.4624   -9.7375 C   0  0  0  0  0  0
  -20.0764   22.8157  -13.1382 H   0  0  0  0  0  0
  1  2  1  0  0  0
  2  3  1  0  0  0
  3  4  2  0  0  0
  3  8  1  0  0  0
  4  5  1  0  0  0
  5  6  2  0  0  0
  6  7  1  0  0  0
  6  9  1  0  0  0
  7  8  2  0  0  0
  9 10  1  0  0  0
  9 17  1  0  0  0
 10 11  1  0  0  0
 10 18  1  0  0  0
 11 12  1  0  0  0
 12 13  1  0  0  0
 13 14  1  0  0  0
 13 17  1  0  0  0
 14 15  2  0  0  0
 15 16  1  0  0  0
 16 17  2  0  0  0
 18 19  2  0  0  0
 18 20  1  0  0  0
 20 21  1  0  0  0
 20 29  1  0  0  0
 21 22  1  0  0  0
 22 23  1  0  0  0
 23 24  2  0  0  0
 23 28  1  0  0  0
 24 25  1  0  0  0
 25 26  2  0  0  0
 26 27  1  0  0  0
 27 28  2  0  0  0
M  END
>  <CHROM.0>
-60.44577976,-72.76719476,-47.10686661,65.35008447,-30.98253345,-178.22792620
-37.46648970,-160.49931491

>  <CHROM.1>
-60.54552548,-84.46206958,-22.26287825,-105.79386066,-169.28927998,132.10231927
-20.72288188,19.25901880,-13.84354041,-0.94135815,0.21276999,0.72170370

>  <Name>
F0533-0109

>  <RI>
3.44907e+07

>  <Rbt.Current_Directory>
/home/adria/Escritorio/rDock_CMTR_LC/2pxcA_model/inputs_sah

>  <Rbt.Executable>
rbdock ($Id: //depot/dev/client3/rdock/2013.1/src/exe/rbdock.cxx#4 $)

>  <Rbt.Library>
libRbt.so (2013.1, Build901 2013/11/27)

>  <Rbt.Parameter_File>
/home/adria/Escritorio/rDock_2013.1_src/data/scripts/dock.prm

>  <Rbt.Receptor>
sah_rdock.prm

>  <SCORE>
-396.329

>  <SCORE.INTER>
-12.643

>  <SCORE.INTER.CONST>
1

>  <SCORE.INTER.POLAR>
0

>  <SCORE.INTER.REPUL>
0

>  <SCORE.INTER.ROT>
6

>  <SCORE.INTER.VDW>
-24.043

>  <SCORE.INTER.norm>
-0.451535

>  <SCORE.INTRA>
-376.066

>  <SCORE.INTRA.DIHEDRAL>
2.06179

>  <SCORE.INTRA.DIHEDRAL.0>
6.4118

>  <SCORE.INTRA.POLAR>
0

>  <SCORE.INTRA.POLAR.0>
0

>  <SCORE.INTRA.REPUL>
0

>  <SCORE.INTRA.REPUL.0>
0

>  <SCORE.INTRA.VDW>
-377.097

>  <SCORE.INTRA.VDW.0>
375.96

>  <SCORE.INTRA.norm>
-13.4309

>  <SCORE.RESTR>
0

>  <SCORE.RESTR.CAVITY>
0

>  <SCORE.RESTR.norm>
0

>  <SCORE.SYSTEM>
-7.62005

>  <SCORE.SYSTEM.CONST>
0

>  <SCORE.SYSTEM.DIHEDRAL>
6.38284

>  <SCORE.SYSTEM.POLAR>
-4.00428

>  <SCORE.SYSTEM.REPUL>
0.0381171

>  <SCORE.SYSTEM.VDW>
2.61251

>  <SCORE.SYSTEM.norm>
-0.272145

>  <SCORE.heavy>
28

>  <SCORE.norm>
-14.1546

$$$$
F0533-0109
  rDOCK(R)          3D
libRbt.so/2013.1/901 2013/11/27
 29 32  0  0  0  0  0  0  0  0999 V2000
  -18.0885   11.5155  -17.0001 C   0  0  0  0  0  0
  -17.1564   12.5548  -16.6683 O   0  0  0  0  0  0
  -17.6817   13.8119  -16.6107 C   0  0  0  0  0  0
  -17.6982   14.6460  -17.6808 C   0  0  0  0  0  0
  -18.2810   15.8851  -17.5296 C   0  0  0  0  0  0
  -18.8911   16.4387  -16.3751 C   0  0  0  0  0  0
  -18.8448   15.5667  -15.2907 C   0  0  0  0  0  0
  -18.2384   14.2815  -15.4119 C   0  0  0  0  0  0
  -19.7737   17.7906  -16.3225 C   0  0  0  0  0  0
  -18.9393   18.9104  -15.4834 N   0  0  0  0  0  0
  -18.7924   18.6140  -13.6551 C   0  0  0  0  0  0
  -20.5722   18.3463  -12.5570 C   0  0  0  0  0  0
  -22.0239   17.8603  -13.8167 N   0  0  0  0  0  0
  -23.8411   17.4423  -13.5491 C   0  0  0  0  0  0
  -24.4903   17.1151  -15.2921 C   0  0  0  0  0  0
  -23.0123   17.3194  -16.6348 C   0  0  0  0  0  0
  -21.4986   17.8118  -15.7609 C   0  0  0  0  0  0
  -19.0250   20.1971  -16.1257 C   0  0  0  0  0  0
  -19.0978   20.4922  -17.7947 S   0  0  0  0  0  0
  -19.1981   21.3583  -15.4197 N   0  0  0  0  0  0
  -19.5034   21.7098  -14.0571 C   0  0  0  0  0  0
  -20.6938   22.5585  -13.9290 C   0  0  0  0  0  0
  -20.9172   23.0371  -12.1845 C   0  0  0  0  0  0
  -19.7128   24.2749  -11.2116 C   0  0  0  0  0  0
  -20.0635   25.3675  -10.0468 C   0  0  0  0  0  0
  -21.5787   25.2259   -9.7820 C   0  0  0  0  0  0
  -22.8696   23.8826  -10.6902 C   0  0  0  0  0  0
  -22.4282   22.8780  -11.8466 C   0  0  0  0  0  0
  -19.3398   22.1476  -16.0399 H   0  0  0  0  0  0
  1  2  1  0  0  0
  2  3  1  0  0  0
  3  4  2  0  0  0
  3  8  1  0  0  0
  4  5  1  0  0  0
  5  6  2  0  0  0
  6  7  1  0  0  0
  6  9  1  0  0  0
  7  8  2  0  0  0
  9 10  1  0  0  0
  9 17  1  0  0  0
 10 11  1  0  0  0
 10 18  1  0  0  0
 11 12  1  0  0  0
 12 13  1  0  0  0
 13 14  1  0  0  0
 13 17  1  0  0  0
 14 15  2  0  0  0
 15 16  1  0  0  0
 16 17  2  0  0  0
 18 19  2  0  0  0
 18 20  1  0  0  0
 20 21  1  0  0  0
 20 29  1  0  0  0
 21 22  1  0  0  0
 22 23  1  0  0  0
 23 24  2  0  0  0
 23 28  1  0  0  0
 24 25  1  0  0  0
 25 26  2  0  0  0
 26 27  1  0  0  0
 27 28  2  0  0  0
M  END
>  <CHROM.0>
40.33918143,-72.96048470,74.34250941,-63.39922895,28.06612431,-176.18892654
82.90584479,-161.97756542

>  <CHROM.1>
-91.88535669,-111.66251177,-34.29781297,-123.61685352,-176.01935457,69.29894716
-20.02415555,18.84906546,-14.76579437,1.28162993,-0.56309297,-2.80173981

>  <Name>
F0533-0109

>  <RI>
3.44907e+07

>  <Rbt.Current_Directory>
/home/adria/Escritorio/rDock_CMTR_LC/2pxcA_model/inputs_sah

>  <Rbt.Executable>
rbdock ($Id: //depot/dev/client3/rdock/2013.1/src/exe/rbdock.cxx#4 $)

>  <Rbt.Library>
libRbt.so (2013.1, Build901 2013/11/27)

>  <Rbt.Parameter_File>
/home/adria/Escritorio/rDock_2013.1_src/data/scripts/dock.prm

>  <Rbt.Receptor>
sah_rdock.prm

>  <SCORE>
-379.68

>  <SCORE.INTER>
-11.8052

>  <SCORE.INTER.CONST>
1

>  <SCORE.INTER.POLAR>
0

>  <SCORE.INTER.REPUL>
0.000739305

>  <SCORE.INTER.ROT>
6

>  <SCORE.INTER.VDW>
-23.2089

>  <SCORE.INTER.norm>
-0.421616

>  <SCORE.INTRA>
-376.618

>  <SCORE.INTRA.DIHEDRAL>
2.1275

>  <SCORE.INTRA.DIHEDRAL.0>
6.4118

>  <SCORE.INTRA.POLAR>
0

>  <SCORE.INTRA.POLAR.0>
0

>  <SCORE.INTRA.REPUL>
0

>  <SCORE.INTRA.REPUL.0>
0

>  <SCORE.INTRA.VDW>
-377.681

>  <SCORE.INTRA.VDW.0>
375.96

>  <SCORE.INTRA.norm>
-13.4506

>  <SCORE.RESTR>
0

>  <SCORE.RESTR.CAVITY>
0

>  <SCORE.RESTR.norm>
0

>  <SCORE.SYSTEM>
8.74289

>  <SCORE.SYSTEM.CONST>
0

>  <SCORE.SYSTEM.DIHEDRAL>
8.68954

>  <SCORE.SYSTEM.POLAR>
-3.73874

>  <SCORE.SYSTEM.REPUL>
0.160526

>  <SCORE.SYSTEM.VDW>
16.3072

>  <SCORE.SYSTEM.norm>
0.312246

>  <SCORE.heavy>
28

>  <SCORE.norm>
-13.56

$$$$
F0533-0109
  rDOCK(R)          3D
libRbt.so/2013.1/901 2013/11/27
 29 32  0  0  0  0  0  0  0  0999 V2000
  -21.9891   26.8426   -8.9645 C   0  0  0  0  0  0
  -20.9831   26.5853   -9.9545 O   0  0  0  0  0  0
  -21.1971   25.4843  -10.7302 C   0  0  0  0  0  0
  -20.6607   24.2720  -10.4408 C   0  0  0  0  0  0
  -20.9629   23.2135  -11.2691 C   0  0  0  0  0  0
  -21.7853   23.2038  -12.4246 C   0  0  0  0  0  0
  -22.3080   24.4634  -12.7046 C   0  0  0  0  0  0
  -22.0048   25.5817  -11.8728 C   0  0  0  0  0  0
  -22.3024   21.8913  -13.2118 C   0  0  0  0  0  0
  -23.4473   21.1715  -12.3031 N   0  0  0  0  0  0
  -22.8505   20.3378  -10.7536 C   0  0  0  0  0  0
  -21.3325   18.8867  -10.9408 C   0  0  0  0  0  0
  -20.4218   19.1472  -12.6824 N   0  0  0  0  0  0
  -18.9716   18.2606  -13.4945 C   0  0  0  0  0  0
  -18.7718   19.1456  -15.1509 C   0  0  0  0  0  0
  -20.1254   20.6181  -15.3206 C   0  0  0  0  0  0
  -21.1729   20.6170  -13.8372 C   0  0  0  0  0  0
  -24.5514   20.7404  -13.1220 C   0  0  0  0  0  0
  -24.8813   19.1533  -13.6220 S   0  0  0  0  0  0
  -25.5666   21.5849  -13.4866 N   0  0  0  0  0  0
  -25.9902   22.9144  -13.1309 C   0  0  0  0  0  0
  -27.0352   22.9349  -12.1006 C   0  0  0  0  0  0
  -26.2637   22.9768  -10.4498 C   0  0  0  0  0  0
  -26.0122   21.3797   -9.3028 C   0  0  0  0  0  0
  -24.7996   21.0238   -8.2654 C   0  0  0  0  0  0
  -23.8508   22.2423   -8.2959 C   0  0  0  0  0  0
  -24.1113   23.9816   -9.3927 C   0  0  0  0  0  0
  -25.3190   24.2131  -10.4072 C   0  0  0  0  0  0
  -26.3036   21.0854  -13.9715 H   0  0  0  0  0  0
  1  2  1  0  0  0
  2  3  1  0  0  0
  3  4  2  0  0  0
  3  8  1  0  0  0
  4  5  1  0  0  0
  5  6  2  0  0  0
  6  7  1  0  0  0
  6  9  1  0  0  0
  7  8  2  0  0  0
  9 10  1  0  0  0
  9 17  1  0  0  0
 10 11  1  0  0  0
 10 18  1  0  0  0
 11 12  1  0  0  0
 12 13  1  0  0  0
 13 14  1  0  0  0
 13 17  1  0  0  0
 14 15  2  0  0  0
 15 16  1  0  0  0
 16 17  2  0  0  0
 18 19  2  0  0  0
 18 20  1  0  0  0
 20 21  1  0  0  0
 20 29  1  0  0  0
 21 22  1  0  0  0
 22 23  1  0  0  0
 23 24  2  0  0  0
 23 28  1  0  0  0
 24 25  1  0  0  0
 25 26  2  0  0  0
 26 27  1  0  0  0
 27 28  2  0  0  0
M  END
>  <CHROM.0>
-59.62184572,68.29748135,77.38072607,-58.91450901,24.15135333,-174.30290466
-156.97397089,-44.78250839

>  <CHROM.1>
-94.54790668,72.77692464,103.44656120,-95.76223347,89.20023143,-98.64283751
-22.94999263,22.12175793,-11.77651933,-1.88248768,-0.22210870,-2.60292977

>  <Name>
F0533-0109

>  <RI>
3.44907e+07

>  <Rbt.Current_Directory>
/home/adria/Escritorio/rDock_CMTR_LC/2pxcA_model/inputs_sah

>  <Rbt.Executable>
rbdock ($Id: //depot/dev/client3/rdock/2013.1/src/exe/rbdock.cxx#4 $)

>  <Rbt.Library>
libRbt.so (2013.1, Build901 2013/11/27)

>  <Rbt.Parameter_File>
/home/adria/Escritorio/rDock_2013.1_src/data/scripts/dock.prm

>  <Rbt.Receptor>
sah_rdock.prm

>  <SCORE>
-378.328

>  <SCORE.INTER>
-7.31803

>  <SCORE.INTER.CONST>
1

>  <SCORE.INTER.POLAR>
-0.871066

>  <SCORE.INTER.REPUL>
0

>  <SCORE.INTER.ROT>
6

>  <SCORE.INTER.VDW>
-15.7564

>  <SCORE.INTER.norm>
-0.261358

>  <SCORE.INTRA>
-377.9

>  <SCORE.INTRA.DIHEDRAL>
6.34498

>  <SCORE.INTRA.DIHEDRAL.0>
6.4118

>  <SCORE.INTRA.POLAR>
0

>  <SCORE.INTRA.POLAR.0>
0

>  <SCORE.INTRA.REPUL>
0

>  <SCORE.INTRA.REPUL.0>
0

>  <SCORE.INTRA.VDW>
-381.072

>  <SCORE.INTRA.VDW.0>
375.96

>  <SCORE.INTRA.norm>
-13.4964

>  <SCORE.RESTR>
0

>  <SCORE.RESTR.CAVITY>
0

>  <SCORE.RESTR.norm>
0

>  <SCORE.SYSTEM>
6.88938

>  <SCORE.SYSTEM.CONST>
0

>  <SCORE.SYSTEM.DIHEDRAL>
9.33813

>  <SCORE.SYSTEM.POLAR>
-3.24482

>  <SCORE.SYSTEM.REPUL>
0.025065

>  <SCORE.SYSTEM.VDW>
13.1274

>  <SCORE.SYSTEM.norm>
0.246049

>  <SCORE.heavy>
28

>  <SCORE.norm>
-13.5117

$$$$
F0533-0109
  rDOCK(R)          3D
libRbt.so/2013.1/901 2013/11/27
 29 32  0  0  0  0  0  0  0  0999 V2000
  -15.7004   18.6705  -16.8308 C   0  0  0  0  0  0
  -16.4005   19.8745  -17.1758 O   0  0  0  0  0  0
  -17.6649   19.9770  -16.6754 C   0  0  0  0  0  0
  -18.6119   19.0281  -16.8844 C   0  0  0  0  0  0
  -19.8505   19.2087  -16.3090 C   0  0  0  0  0  0
  -20.2989   20.2822  -15.4978 C   0  0  0  0  0  0
  -19.3114   21.2464  -15.3144 C   0  0  0  0  0  0
  -18.0226   21.0940  -15.9061 C   0  0  0  0  0  0
  -21.6732   20.3227  -14.6498 C   0  0  0  0  0  0
  -21.3701   21.0515  -13.2245 N   0  0  0  0  0  0
  -20.3391   20.0835  -12.0193 C   0  0  0  0  0  0
  -20.9955   18.1492  -11.4966 C   0  0  0  0  0  0
  -22.2720   17.5214  -12.8775 N   0  0  0  0  0  0
  -23.2136   15.9030  -13.0846 C   0  0  0  0  0  0
  -24.2110   16.1606  -14.6675 C   0  0  0  0  0  0
  -23.8343   17.9747  -15.4397 C   0  0  0  0  0  0
  -22.6773   18.8435  -14.3424 C   0  0  0  0  0  0
  -22.4295   21.9667  -12.8845 C   0  0  0  0  0  0
  -24.0918   21.6288  -12.8665 S   0  0  0  0  0  0
  -22.1839   23.2207  -12.3908 N   0  0  0  0  0  0
  -21.0330   23.9417  -11.9120 C   0  0  0  0  0  0
  -21.3647   25.2524  -11.3413 C   0  0  0  0  0  0
  -22.5262   25.0372   -9.9532 C   0  0  0  0  0  0
  -24.3646   24.3216  -10.1468 C   0  0  0  0  0  0
  -25.2328   23.3907   -9.1205 C   0  0  0  0  0  0
  -24.3395   23.1942   -7.8758 C   0  0  0  0  0  0
  -22.4545   23.9998   -7.5702 C   0  0  0  0  0  0
  -21.6798   24.8708   -8.6577 C   0  0  0  0  0  0
  -23.0434   23.6807  -12.1124 H   0  0  0  0  0  0
  1  2  1  0  0  0
  2  3  1  0  0  0
  3  4  2  0  0  0
  3  8  1  0  0  0
  4  5  1  0  0  0
  5  6  2  0  0  0
  6  7  1  0  0  0
  6  9  1  0  0  0
  7  8  2  0  0  0
  9 10  1  0  0  0
  9 17  1  0  0  0
 10 11  1  0  0  0
 10 18  1  0  0  0
 11 12  1  0  0  0
 12 13  1  0  0  0
 13 14  1  0  0  0
 13 17  1  0  0  0
 14 15  2  0  0  0
 15 16  1  0  0  0
 16 17  2  0  0  0
 18 19  2  0  0  0
 18 20  1  0  0  0
 20 21  1  0  0  0
 20 29  1  0  0  0
 21 22  1  0  0  0
 22 23  1  0  0  0
 23 24  2  0  0  0
 23 28  1  0  0  0
 24 25  1  0  0  0
 25 26  2  0  0  0
 26 27  1  0  0  0
 27 28  2  0  0  0
M  END
>  <CHROM.0>
39.44127699,-166.14013643,-44.69682583,60.63942779,34.79201515,177.22420402
-36.56476155,-161.17573052

>  <CHROM.1>
-54.81084903,140.93353681,50.92393914,-173.35147341,58.83956277,-64.36235710
-21.43563361,20.96052880,-13.12035560,-0.96523257,0.54823471,0.58147109

>  <Name>
F0533-0109

>  <RI>
3.44907e+07

>  <Rbt.Current_Directory>
/home/adria/Escritorio/rDock_CMTR_LC/2pxcA_model/inputs_sah

>  <Rbt.Executable>
rbdock ($Id: //depot/dev/client3/rdock/2013.1/src/exe/rbdock.cxx#4 $)

>  <Rbt.Library>
libRbt.so (2013.1, Build901 2013/11/27)

>  <Rbt.Parameter_File>
/home/adria/Escritorio/rDock_2013.1_src/data/scripts/dock.prm

>  <Rbt.Receptor>
sah_rdock.prm

>  <SCORE>
-373.866

>  <SCORE.INTER>
-7.32504

>  <SCORE.INTER.CONST>
1

>  <SCORE.INTER.POLAR>
-0.822038

>  <SCORE.INTER.REPUL>
0.037943

>  <SCORE.INTER.ROT>
6

>  <SCORE.INTER.VDW>
-16.1198

>  <SCORE.INTER.norm>
-0.261608

>  <SCORE.INTRA>
-376.482

>  <SCORE.INTRA.DIHEDRAL>
1.41571

>  <SCORE.INTRA.DIHEDRAL.0>
6.4118

>  <SCORE.INTRA.POLAR>
0

>  <SCORE.INTRA.POLAR.0>
0

>  <SCORE.INTRA.REPUL>
0

>  <SCORE.INTRA.REPUL.0>
0

>  <SCORE.INTRA.VDW>
-377.19

>  <SCORE.INTRA.VDW.0>
375.96

>  <SCORE.INTRA.norm>
-13.4458

>  <SCORE.RESTR>
0

>  <SCORE.RESTR.CAVITY>
0

>  <SCORE.RESTR.norm>
0

>  <SCORE.SYSTEM>
9.94092

>  <SCORE.SYSTEM.CONST>
0

>  <SCORE.SYSTEM.DIHEDRAL>
7.76695

>  <SCORE.SYSTEM.POLAR>
-3.33396

>  <SCORE.SYSTEM.REPUL>
0.125007

>  <SCORE.SYSTEM.VDW>
16.7679

>  <SCORE.SYSTEM.norm>
0.355033

>  <SCORE.heavy>
28

>  <SCORE.norm>
-13.3524

$$$$
F0533-0109
  rDOCK(R)          3D
libRbt.so/2013.1/901 2013/11/27
 29 32  0  0  0  0  0  0  0  0999 V2000
  -18.7154   26.6079  -10.4672 C   0  0  0  0  0  0
  -20.1495   26.5633  -10.4770 O   0  0  0  0  0  0
  -20.6929   25.3192  -10.6059 C   0  0  0  0  0  0
  -21.9143   25.0008  -10.1081 C   0  0  0  0  0  0
  -22.3892   23.7249  -10.3187 C   0  0  0  0  0  0
  -21.7654   22.6533  -11.0071 C   0  0  0  0  0  0
  -20.5087   23.0050  -11.4923 C   0  0  0  0  0  0
  -19.9841   24.3144  -11.2809 C   0  0  0  0  0  0
  -22.4671   21.2631  -11.4365 C   0  0  0  0  0  0
  -22.8987   21.3740  -13.0036 N   0  0  0  0  0  0
  -24.3150   22.5169  -13.3780 C   0  0  0  0  0  0
  -26.1287   22.2035  -12.3497 C   0  0  0  0  0  0
  -25.7583   21.1161  -10.7339 N   0  0  0  0  0  0
  -26.8719   20.4929   -9.3482 C   0  0  0  0  0  0
  -25.6992   19.5266   -8.2268 C   0  0  0  0  0  0
  -23.8285   19.5965   -8.9512 C   0  0  0  0  0  0
  -23.8433   20.5336  -10.5066 C   0  0  0  0  0  0
  -22.5907   20.1537  -13.7047 C   0  0  0  0  0  0
  -23.6297   18.8344  -13.9442 S   0  0  0  0  0  0
  -21.4198   19.9807  -14.3944 N   0  0  0  0  0  0
  -20.3206   20.8171  -14.8015 C   0  0  0  0  0  0
  -19.1037   20.6033  -14.0095 C   0  0  0  0  0  0
  -18.3327   19.0232  -14.4899 C   0  0  0  0  0  0
  -19.3086   17.3011  -14.5978 C   0  0  0  0  0  0
  -19.1007   16.0498  -15.6295 C   0  0  0  0  0  0
  -17.9073   16.4418  -16.5284 C   0  0  0  0  0  0
  -16.7826   18.1778  -16.3984 C   0  0  0  0  0  0
  -17.0945   19.3569  -15.3719 C   0  0  0  0  0  0
  -21.4216   19.1064  -14.9077 H   0  0  0  0  0  0
  1  2  1  0  0  0
  2  3  1  0  0  0
  3  4  2  0  0  0
  3  8  1  0  0  0
  4  5  1  0  0  0
  5  6  2  0  0  0
  6  7  1  0  0  0
  6  9  1  0  0  0
  7  8  2  0  0  0
  9 10  1  0  0  0
  9 17  1  0  0  0
 10 11  1  0  0  0
 10 18  1  0  0  0
 11 12  1  0  0  0
 12 13  1  0  0  0
 13 14  1  0  0  0
 13 17  1  0  0  0
 14 15  2  0  0  0
 15 16  1  0  0  0
 16 17  2  0  0  0
 18 19  2  0  0  0
 18 20  1  0  0  0
 20 21  1  0  0  0
 20 29  1  0  0  0
 21 22  1  0  0  0
 22 23  1  0  0  0
 23 24  2  0  0  0
 23 28  1  0  0  0
 24 25  1  0  0  0
 25 26  2  0  0  0
 26 27  1  0  0  0
 27 28  2  0  0  0
M  END
>  <CHROM.0>
-59.85285431,-74.04536281,-42.99196423,65.73559163,-32.71095030,60.61535051
-35.83257573,-159.43801795

>  <CHROM.1>
152.27857597,98.63319630,92.60199212,105.49350269,73.98774036,-50.36389858
-21.65406901,21.10966162,-12.48840556,-2.18302545,-0.42046919,-2.63027521

>  <Name>
F0533-0109

>  <RI>
3.44907e+07

>  <Rbt.Current_Directory>
/home/adria/Escritorio/rDock_CMTR_LC/2pxcA_model/inputs_sah

>  <Rbt.Executable>
rbdock ($Id: //depot/dev/client3/rdock/2013.1/src/exe/rbdock.cxx#4 $)

>  <Rbt.Library>
libRbt.so (2013.1, Build901 2013/11/27)

>  <Rbt.Parameter_File>
/home/adria/Escritorio/rDock_2013.1_src/data/scripts/dock.prm

>  <Rbt.Receptor>
sah_rdock.prm

>  <SCORE>
-389.266

>  <SCORE.INTER>
-5.44672

>  <SCORE.INTER.CONST>
1

>  <SCORE.INTER.POLAR>
-0.935976

>  <SCORE.INTER.REPUL>
0.0515721

>  <SCORE.INTER.ROT>
6

>  <SCORE.INTER.VDW>
-13.9223

>  <SCORE.INTER.norm>
-0.194526

>  <SCORE.INTRA>
-376.703

>  <SCORE.INTRA.DIHEDRAL>
-1.06444

>  <SCORE.INTRA.DIHEDRAL.0>
6.4118

>  <SCORE.INTRA.POLAR>
0

>  <SCORE.INTRA.POLAR.0>
0

>  <SCORE.INTRA.REPUL>
0

>  <SCORE.INTRA.REPUL.0>
0

>  <SCORE.INTRA.VDW>
-376.171

>  <SCORE.INTRA.VDW.0>
375.96

>  <SCORE.INTRA.norm>
-13.4537

>  <SCORE.RESTR>
0.314112

>  <SCORE.RESTR.CAVITY>
0.314112

>  <SCORE.RESTR.norm>
0.0112183

>  <SCORE.SYSTEM>
-7.42945

>  <SCORE.SYSTEM.CONST>
0

>  <SCORE.SYSTEM.DIHEDRAL>
6.70223

>  <SCORE.SYSTEM.POLAR>
-4.03962

>  <SCORE.SYSTEM.REPUL>
0.0403487

>  <SCORE.SYSTEM.VDW>
2.7524

>  <SCORE.SYSTEM.norm>
-0.265337

>  <SCORE.heavy>
28

>  <SCORE.norm>
-13.9023

$$$$
F0533-0109
  rDOCK(R)          3D
libRbt.so/2013.1/901 2013/11/27
 29 32  0  0  0  0  0  0  0  0999 V2000
  -14.4652   18.7870  -17.7914 C   0  0  0  0  0  0
  -14.9630   18.5558  -16.4657 O   0  0  0  0  0  0
  -16.2794   18.8576  -16.2768 C   0  0  0  0  0  0
  -17.2217   17.9071  -16.0542 C   0  0  0  0  0  0
  -18.5200   18.3163  -15.8428 C   0  0  0  0  0  0
  -19.0369   19.6369  -15.8218 C   0  0  0  0  0  0
  -18.0505   20.5881  -16.0686 C   0  0  0  0  0  0
  -16.6993   20.1957  -16.3023 C   0  0  0  0  0  0
  -20.5115   20.0723  -15.3266 C   0  0  0  0  0  0
  -20.4850   20.2020  -13.7027 N   0  0  0  0  0  0
  -20.3458   18.6059  -12.7617 C   0  0  0  0  0  0
  -21.7777   17.1080  -13.1505 C   0  0  0  0  0  0
  -22.6308   17.4891  -14.8990 N   0  0  0  0  0  0
  -23.9472   16.5742  -15.8883 C   0  0  0  0  0  0
  -24.1763   17.6411  -17.4297 C   0  0  0  0  0  0
  -22.9435   19.2240  -17.3696 C   0  0  0  0  0  0
  -22.0114   19.1747  -15.8119 C   0  0  0  0  0  0
  -21.2023   21.3752  -13.2733 C   0  0  0  0  0  0
  -20.6075   22.9631  -13.2229 S   0  0  0  0  0  0
  -22.5390   21.3481  -12.9743 N   0  0  0  0  0  0
  -23.6164   20.4033  -13.1168 C   0  0  0  0  0  0
  -24.0743   19.8475  -11.8381 C   0  0  0  0  0  0
  -24.6628   21.1959  -10.7623 C   0  0  0  0  0  0
  -23.6483   21.9002   -9.2119 C   0  0  0  0  0  0
  -23.5630   23.4258   -8.6299 C   0  0  0  0  0  0
  -24.5059   24.2666   -9.5187 C   0  0  0  0  0  0
  -25.6704   23.5708  -11.0857 C   0  0  0  0  0  0
  -25.6519   22.0609  -11.5967 C   0  0  0  0  0  0
  -22.8937   22.2803  -12.7927 H   0  0  0  0  0  0
  1  2  1  0  0  0
  2  3  1  0  0  0
  3  4  2  0  0  0
  3  8  1  0  0  0
  4  5  1  0  0  0
  5  6  2  0  0  0
  6  7  1  0  0  0
  6  9  1  0  0  0
  7  8  2  0  0  0
  9 10  1  0  0  0
  9 17  1  0  0  0
 10 11  1  0  0  0
 10 18  1  0  0  0
 11 12  1  0  0  0
 12 13  1  0  0  0
 13 14  1  0  0  0
 13 17  1  0  0  0
 14 15  2  0  0  0
 15 16  1  0  0  0
 16 17  2  0  0  0
 18 19  2  0  0  0
 18 20  1  0  0  0
 20 21  1  0  0  0
 20 29  1  0  0  0
 21 22  1  0  0  0
 22 23  1  0  0  0
 23 24  2  0  0  0
 23 28  1  0  0  0
 24 25  1  0  0  0
 25 26  2  0  0  0
 26 27  1  0  0  0
 27 28  2  0  0  0
M  END
>  <CHROM.0>
-60.80971316,-73.18558314,-129.73595934,63.11325168,-30.45368028,61.04743349
83.77804110,-163.56108340

>  <CHROM.1>
111.19667031,82.46889338,-82.24980626,109.91228775,59.84486855,-104.83058810
-21.12559165,20.16230516,-13.98456640,-0.71200080,0.23796410,0.75699000

>  <Name>
F0533-0109

>  <RI>
3.44907e+07

>  <Rbt.Current_Directory>
/home/adria/Escritorio/rDock_CMTR_LC/2pxcA_model/inputs_sah

>  <Rbt.Executable>
rbdock ($Id: //depot/dev/client3/rdock/2013.1/src/exe/rbdock.cxx#4 $)

>  <Rbt.Library>
libRbt.so (2013.1, Build901 2013/11/27)

>  <Rbt.Parameter_File>
/home/adria/Escritorio/rDock_2013.1_src/data/scripts/dock.prm

>  <Rbt.Receptor>
sah_rdock.prm

>  <SCORE>
-395.956

>  <SCORE.INTER>
-10.6212

>  <SCORE.INTER.CONST>
1

>  <SCORE.INTER.POLAR>
0

>  <SCORE.INTER.REPUL>
0.00452015

>  <SCORE.INTER.ROT>
6

>  <SCORE.INTER.VDW>
-22.0438

>  <SCORE.INTER.norm>
-0.379327

>  <SCORE.INTRA>
-378.205

>  <SCORE.INTRA.DIHEDRAL>
1.60881

>  <SCORE.INTRA.DIHEDRAL.0>
6.4118

>  <SCORE.INTRA.POLAR>
0

>  <SCORE.INTRA.POLAR.0>
0

>  <SCORE.INTRA.REPUL>
0

>  <SCORE.INTRA.REPUL.0>
0

>  <SCORE.INTRA.VDW>
-379.009

>  <SCORE.INTRA.VDW.0>
375.96

>  <SCORE.INTRA.norm>
-13.5073

>  <SCORE.RESTR>
0

>  <SCORE.RESTR.CAVITY>
0

>  <SCORE.RESTR.norm>
0

>  <SCORE.SYSTEM>
-7.12977

>  <SCORE.SYSTEM.CONST>
0

>  <SCORE.SYSTEM.DIHEDRAL>
9.3721

>  <SCORE.SYSTEM.POLAR>
-4.53352

>  <SCORE.SYSTEM.REPUL>
0.0388653

>  <SCORE.SYSTEM.VDW>
3.40381

>  <SCORE.SYSTEM.norm>
-0.254635

>  <SCORE.heavy>
28

>  <SCORE.norm>
-14.1413

$$$$
F0533-0109
  rDOCK(R)          3D
libRbt.so/2013.1/901 2013/11/27
 29 32  0  0  0  0  0  0  0  0999 V2000
  -16.0582   17.2468  -17.6154 C   0  0  0  0  0  0
  -17.2417   17.5307  -18.3753 O   0  0  0  0  0  0
  -18.2974   18.0049  -17.6541 C   0  0  0  0  0  0
  -18.5216   19.3308  -17.4738 C   0  0  0  0  0  0
  -19.6346   19.7097  -16.7557 C   0  0  0  0  0  0
  -20.6198   18.8855  -16.1544 C   0  0  0  0  0  0
  -20.3545   17.5318  -16.3428 C   0  0  0  0  0  0
  -19.2044   17.1072  -17.0718 C   0  0  0  0  0  0
  -22.0287   19.3826  -15.5402 C   0  0  0  0  0  0
  -22.1955   18.7298  -14.0567 N   0  0  0  0  0  0
  -22.5104   16.8995  -14.0046 C   0  0  0  0  0  0
  -24.1503   16.1530  -15.0995 C   0  0  0  0  0  0
  -24.6651   17.4989  -16.4612 N   0  0  0  0  0  0
  -25.9939   17.5003  -17.7964 C   0  0  0  0  0  0
  -25.7924   19.1820  -18.6319 C   0  0  0  0  0  0
  -24.2842   20.2022  -17.7871 C   0  0  0  0  0  0
  -23.6000   19.2085  -16.4300 C   0  0  0  0  0  0
  -22.7115   19.7020  -13.1272 C   0  0  0  0  0  0
  -24.1270   19.5658  -12.2022 S   0  0  0  0  0  0
  -22.0118   20.8276  -12.7806 N   0  0  0  0  0  0
  -20.6760   21.3246  -12.9855 C   0  0  0  0  0  0
  -20.6363   22.7365  -13.3838 C   0  0  0  0  0  0
  -21.3777   23.7617  -12.0718 C   0  0  0  0  0  0
  -20.4412   24.2715  -10.4008 C   0  0  0  0  0  0
  -20.5432   25.6515   -9.5298 C   0  0  0  0  0  0
  -21.5967   26.5234  -10.2481 C   0  0  0  0  0  0
  -22.6832   26.0061  -11.9356 C   0  0  0  0  0  0
  -22.4794   24.6405  -12.7326 C   0  0  0  0  0  0
  -22.4811   21.3387  -12.0414 H   0  0  0  0  0  0
  1  2  1  0  0  0
  2  3  1  0  0  0
  3  4  2  0  0  0
  3  8  1  0  0  0
  4  5  1  0  0  0
  5  6  2  0  0  0
  6  7  1  0  0  0
  6  9  1  0  0  0
  7  8  2  0  0  0
  9 10  1  0  0  0
  9 17  1  0  0  0
 10 11  1  0  0  0
 10 18  1  0  0  0
 11 12  1  0  0  0
 12 13  1  0  0  0
 13 14  1  0  0  0
 13 17  1  0  0  0
 14 15  2  0  0  0
 15 16  1  0  0  0
 16 17  2  0  0  0
 18 19  2  0  0  0
 18 20  1  0  0  0
 20 21  1  0  0  0
 20 29  1  0  0  0
 21 22  1  0  0  0
 22 23  1  0  0  0
 23 24  2  0  0  0
 23 28  1  0  0  0
 24 25  1  0  0  0
 25 26  2  0  0  0
 26 27  1  0  0  0
 27 28  2  0  0  0
M  END
>  <CHROM.0>
-59.86137174,-74.11298067,74.97324714,65.01813802,167.84259731,-58.05041666
-36.37038172,-161.48949674

>  <CHROM.1>
92.21038632,-131.23063849,122.46594741,135.05601929,61.10249731,78.49286435
-21.66928206,20.10572136,-14.70048821,-1.46807477,0.15730114,0.71178654

>  <Name>
F0533-0109

>  <RI>
3.44907e+07

>  <Rbt.Current_Directory>
/home/adria/Escritorio/rDock_CMTR_LC/2pxcA_model/inputs_sah

>  <Rbt.Executable>
rbdock ($Id: //depot/dev/client3/rdock/2013.1/src/exe/rbdock.cxx#4 $)

>  <Rbt.Library>
libRbt.so (2013.1, Build901 2013/11/27)

>  <Rbt.Parameter_File>
/home/adria/Escritorio/rDock_2013.1_src/data/scripts/dock.prm

>  <Rbt.Receptor>
sah_rdock.prm

>  <SCORE>
-389.887

>  <SCORE.INTER>
-9.99715

>  <SCORE.INTER.CONST>
1

>  <SCORE.INTER.POLAR>
0

>  <SCORE.INTER.REPUL>
0

>  <SCORE.INTER.ROT>
6

>  <SCORE.INTER.VDW>
-21.3971

>  <SCORE.INTER.norm>
-0.357041

>  <SCORE.INTRA>
-377.097

>  <SCORE.INTRA.DIHEDRAL>
2.93762

>  <SCORE.INTRA.DIHEDRAL.0>
6.4118

>  <SCORE.INTRA.POLAR>
0

>  <SCORE.INTRA.POLAR.0>
0

>  <SCORE.INTRA.REPUL>
0

>  <SCORE.INTRA.REPUL.0>
0

>  <SCORE.INTRA.VDW>
-378.566

>  <SCORE.INTRA.VDW.0>
375.96

>  <SCORE.INTRA.norm>
-13.4678

>  <SCORE.RESTR>
0.10135

>  <SCORE.RESTR.CAVITY>
0.10135

>  <SCORE.RESTR.norm>
0.00361964

>  <SCORE.SYSTEM>
-2.89431

>  <SCORE.SYSTEM.CONST>
0

>  <SCORE.SYSTEM.DIHEDRAL>
3.99728

>  <SCORE.SYSTEM.POLAR>
-4.04025

>  <SCORE.SYSTEM.REPUL>
0.0404622

>  <SCORE.SYSTEM.VDW>
8.6416

>  <SCORE.SYSTEM.norm>
-0.103368

>  <SCORE.heavy>
28

>  <SCORE.norm>
-13.9245

$$$$
F0533-0109
  rDOCK(R)          3D
libRbt.so/2013.1/901 2013/11/27
 29 32  0  0  0  0  0  0  0  0999 V2000
  -14.7753   16.9468  -17.0165 C   0  0  0  0  0  0
  -15.9990   16.3539  -17.4743 O   0  0  0  0  0  0
  -17.1396   16.9581  -17.0344 C   0  0  0  0  0  0
  -17.9531   16.3944  -16.1063 C   0  0  0  0  0  0
  -19.0658   17.0998  -15.7035 C   0  0  0  0  0  0
  -19.5029   18.3791  -16.1323 C   0  0  0  0  0  0
  -18.6576   18.9245  -17.0948 C   0  0  0  0  0  0
  -17.5039   18.2144  -17.5410 C   0  0  0  0  0  0
  -20.6715   19.2617  -15.4506 C   0  0  0  0  0  0
  -20.4892   19.1848  -13.8334 N   0  0  0  0  0  0
  -20.8927   17.5508  -13.0464 C   0  0  0  0  0  0
  -22.8029   16.7330  -13.4040 C   0  0  0  0  0  0
  -23.5678   17.5974  -15.0159 N   0  0  0  0  0  0
  -25.1939   17.3455  -15.9329 C   0  0  0  0  0  0
  -25.1115   18.5925  -17.3488 C   0  0  0  0  0  0
  -23.3760   19.5992  -17.2890 C   0  0  0  0  0  0
  -22.4271   19.0346  -15.8474 C   0  0  0  0  0  0
  -20.6862   20.4809  -13.2361 C   0  0  0  0  0  0
  -20.5147   21.9848  -14.0020 S   0  0  0  0  0  0
  -21.1832   20.6356  -11.9689 N   0  0  0  0  0  0
  -21.7811   19.7811  -10.9760 C   0  0  0  0  0  0
  -22.8635   20.4300  -10.2269 C   0  0  0  0  0  0
  -24.2189   20.8636  -11.3657 C   0  0  0  0  0  0
  -24.1591   20.5663  -13.3246 C   0  0  0  0  0  0
  -25.3648   20.1664  -14.3540 C   0  0  0  0  0  0
  -26.6468   20.1058  -13.4944 C   0  0  0  0  0  0
  -26.7923   20.5064  -11.4661 C   0  0  0  0  0  0
  -25.5403   20.8555  -10.5431 C   0  0  0  0  0  0
  -21.3505   21.6128  -11.7567 H   0  0  0  0  0  0
  1  2  1  0  0  0
  2  3  1  0  0  0
  3  4  2  0  0  0
  3  8  1  0  0  0
  4  5  1  0  0  0
  5  6  2  0  0  0
  6  7  1  0  0  0
  6  9  1  0  0  0
  7  8  2  0  0  0
  9 10  1  0  0  0
  9 17  1  0  0  0
 10 11  1  0  0  0
 10 18  1  0  0  0
 11 12  1  0  0  0
 12 13  1  0  0  0
 13 14  1  0  0  0
 13 17  1  0  0  0
 14 15  2  0  0  0
 15 16  1  0  0  0
 16 17  2  0  0  0
 18 19  2  0  0  0
 18 20  1  0  0  0
 20 21  1  0  0  0
 20 29  1  0  0  0
 21 22  1  0  0  0
 22 23  1  0  0  0
 23 24  2  0  0  0
 23 28  1  0  0  0
 24 25  1  0  0  0
 25 26  2  0  0  0
 26 27  1  0  0  0
 27 28  2  0  0  0
M  END
>  <CHROM.0>
-60.49139971,-71.76234511,-8.33424256,64.49598390,-30.43271787,-58.07828545
83.16501915,-161.67538647

>  <CHROM.1>
-107.94945104,43.12416466,-23.24358899,-142.43932729,62.78824295,-2.75063292
-21.48794507,19.06818950,-14.47567377,-0.60080277,-0.03363651,1.03571762

>  <Name>
F0533-0109

>  <RI>
3.44907e+07

>  <Rbt.Current_Directory>
/home/adria/Escritorio/rDock_CMTR_LC/2pxcA_model/inputs_sah

>  <Rbt.Executable>
rbdock ($Id: //depot/dev/client3/rdock/2013.1/src/exe/rbdock.cxx#4 $)

>  <Rbt.Library>
libRbt.so (2013.1, Build901 2013/11/27)

>  <Rbt.Parameter_File>
/home/adria/Escritorio/rDock_2013.1_src/data/scripts/dock.prm

>  <Rbt.Receptor>
sah_rdock.prm

>  <SCORE>
-391.725

>  <SCORE.INTER>
-5.93278

>  <SCORE.INTER.CONST>
1

>  <SCORE.INTER.POLAR>
0

>  <SCORE.INTER.REPUL>
0.00869467

>  <SCORE.INTER.ROT>
6

>  <SCORE.INTER.VDW>
-17.3763

>  <SCORE.INTER.norm>
-0.211885

>  <SCORE.INTRA>
-378.443

>  <SCORE.INTRA.DIHEDRAL>
0.816573

>  <SCORE.INTRA.DIHEDRAL.0>
6.4118

>  <SCORE.INTRA.POLAR>
0

>  <SCORE.INTRA.POLAR.0>
0

>  <SCORE.INTRA.REPUL>
0

>  <SCORE.INTRA.REPUL.0>
0

>  <SCORE.INTRA.VDW>
-378.852

>  <SCORE.INTRA.VDW.0>
375.96

>  <SCORE.INTRA.norm>
-13.5158

>  <SCORE.RESTR>
0

>  <SCORE.RESTR.CAVITY>
0

>  <SCORE.RESTR.norm>
0

>  <SCORE.SYSTEM>
-7.34919

>  <SCORE.SYSTEM.CONST>
0

>  <SCORE.SYSTEM.DIHEDRAL>
9.36491

>  <SCORE.SYSTEM.POLAR>
-4.59337

>  <SCORE.SYSTEM.REPUL>
0.0362508

>  <SCORE.SYSTEM.VDW>
3.40454

>  <SCORE.SYSTEM.norm>
-0.262471

>  <SCORE.heavy>
28

>  <SCORE.norm>
-13.9902

$$$$
F0533-0109
  rDOCK(R)          3D
libRbt.so/2013.1/901 2013/11/27
 29 32  0  0  0  0  0  0  0  0999 V2000
  -21.4214   21.1096  -12.2409 C   0  0  0  0  0  0
  -20.5124   21.5681  -13.2520 O   0  0  0  0  0  0
  -19.7943   20.5912  -13.8762 C   0  0  0  0  0  0
  -19.6140   20.5637  -15.2207 C   0  0  0  0  0  0
  -18.8447   19.5522  -15.7525 C   0  0  0  0  0  0
  -18.1867   18.4942  -15.0747 C   0  0  0  0  0  0
  -18.4028   18.5400  -13.7001 C   0  0  0  0  0  0
  -19.2036   19.5679  -13.1202 C   0  0  0  0  0  0
  -17.1006   17.4850  -15.7161 C   0  0  0  0  0  0
  -16.5873   18.1196  -17.1263 N   0  0  0  0  0  0
  -17.8181   18.1099  -18.5181 C   0  0  0  0  0  0
  -18.6833   16.2627  -19.0518 C   0  0  0  0  0  0
  -18.4530   14.9983  -17.5423 N   0  0  0  0  0  0
  -18.9982   13.2120  -17.2964 C   0  0  0  0  0  0
  -18.3520   12.7756  -15.5763 C   0  0  0  0  0  0
  -17.4165   14.3545  -14.7634 C   0  0  0  0  0  0
  -17.4320   15.7185  -15.9621 C   0  0  0  0  0  0
  -15.1602   17.9756  -17.2605 C   0  0  0  0  0  0
  -13.9722   18.9234  -16.5069 S   0  0  0  0  0  0
  -14.5898   16.9286  -17.9352 N   0  0  0  0  0  0
  -15.0465   15.6873  -18.5044 C   0  0  0  0  0  0
  -14.0010   14.6597  -18.5716 C   0  0  0  0  0  0
  -14.7443   13.0625  -19.0394 C   0  0  0  0  0  0
  -16.2289   12.1985  -18.0501 C   0  0  0  0  0  0
  -17.4665   11.2910  -18.6142 C   0  0  0  0  0  0
  -17.2388   11.1726  -20.1374 C   0  0  0  0  0  0
  -15.6540   11.9640  -21.2133 C   0  0  0  0  0  0
  -14.5121   12.8690  -20.5663 C   0  0  0  0  0  0
  -13.5807   16.9351  -17.8379 H   0  0  0  0  0  0
  1  2  1  0  0  0
  2  3  1  0  0  0
  3  4  2  0  0  0
  3  8  1  0  0  0
  4  5  1  0  0  0
  5  6  2  0  0  0
  6  7  1  0  0  0
  6  9  1  0  0  0
  7  8  2  0  0  0
  9 10  1  0  0  0
  9 17  1  0  0  0
 10 11  1  0  0  0
 10 18  1  0  0  0
 11 12  1  0  0  0
 12 13  1  0  0  0
 13 14  1  0  0  0
 13 17  1  0  0  0
 14 15  2  0  0  0
 15 16  1  0  0  0
 16 17  2  0  0  0
 18 19  2  0  0  0
 18 20  1  0  0  0
 20 21  1  0  0  0
 20 29  1  0  0  0
 21 22  1  0  0  0
 22 23  1  0  0  0
 23 24  2  0  0  0
 23 28  1  0  0  0
 24 25  1  0  0  0
 25 26  2  0  0  0
 26 27  1  0  0  0
 27 28  2  0  0  0
M  END
>  <CHROM.0>
-179.59575675,-165.67955214,75.63730332,62.11471495,168.06952384,-62.99542218
-36.64391460,-168.99456487

>  <CHROM.1>
135.77241861,15.16689442,-77.90742482,-153.43645087,170.58308617,-55.85097690
-17.19659621,16.52962882,-16.76283859,1.98340338,0.48771383,0.41304182

>  <Name>
F0533-0109

>  <RI>
3.44907e+07

>  <Rbt.Current_Directory>
/home/adria/Escritorio/rDock_CMTR_LC/2pxcA_model/inputs_sah

>  <Rbt.Executable>
rbdock ($Id: //depot/dev/client3/rdock/2013.1/src/exe/rbdock.cxx#4 $)

>  <Rbt.Library>
libRbt.so (2013.1, Build901 2013/11/27)

>  <Rbt.Parameter_File>
/home/adria/Escritorio/rDock_2013.1_src/data/scripts/dock.prm

>  <Rbt.Receptor>
sah_rdock.prm

>  <SCORE>
-353.813

>  <SCORE.INTER>
21.7633

>  <SCORE.INTER.CONST>
1

>  <SCORE.INTER.POLAR>
-0.805073

>  <SCORE.INTER.REPUL>
0

>  <SCORE.INTER.ROT>
6

>  <SCORE.INTER.VDW>
13.1006

>  <SCORE.INTER.norm>
0.777262

>  <SCORE.INTRA>
-375.663

>  <SCORE.INTRA.DIHEDRAL>
-0.139127

>  <SCORE.INTRA.DIHEDRAL.0>
6.4118

>  <SCORE.INTRA.POLAR>
0

>  <SCORE.INTRA.POLAR.0>
0

>  <SCORE.INTRA.REPUL>
0

>  <SCORE.INTRA.REPUL.0>
0

>  <SCORE.INTRA.VDW>
-375.593

>  <SCORE.INTRA.VDW.0>
375.96

>  <SCORE.INTRA.norm>
-13.4165

>  <SCORE.RESTR>
1.24944

>  <SCORE.RESTR.CAVITY>
1.24944

>  <SCORE.RESTR.norm>
0.0446229

>  <SCORE.SYSTEM>
-1.16266

>  <SCORE.SYSTEM.CONST>
0

>  <SCORE.SYSTEM.DIHEDRAL>
3.62172

>  <SCORE.SYSTEM.POLAR>
-3.61824

>  <SCORE.SYSTEM.VDW>
9.32848

>  <SCORE.SYSTEM.norm>
-0.0415237

>  <SCORE.heavy>
28

>  <SCORE.norm>
-12.6362

$$$$
F0533-0109
  rDOCK(R)          3D
libRbt.so/2013.1/901 2013/11/27
 29 32  0  0  0  0  0  0  0  0999 V2000
  -14.7891   17.3256  -17.0094 C   0  0  0  0  0  0
  -15.1878   18.6266  -17.4644 O   0  0  0  0  0  0
  -16.4320   19.0248  -17.0732 C   0  0  0  0  0  0
  -17.5661   18.5063  -17.6078 C   0  0  0  0  0  0
  -18.7759   18.9515  -17.1219 C   0  0  0  0  0  0
  -19.0200   19.9090  -16.1045 C   0  0  0  0  0  0
  -17.8389   20.4339  -15.5867 C   0  0  0  0  0  0
  -16.5709   20.0018  -16.0764 C   0  0  0  0  0  0
  -20.4447   20.2104  -15.4054 C   0  0  0  0  0  0
  -20.2318   20.1961  -13.7901 N   0  0  0  0  0  0
  -19.9047   18.5336  -13.0277 C   0  0  0  0  0  0
  -21.2984   16.9941  -13.3922 C   0  0  0  0  0  0
  -22.3705   17.4783  -14.9880 N   0  0  0  0  0  0
  -23.7492   16.5788  -15.9039 C   0  0  0  0  0  0
  -24.2111   17.7634  -17.3003 C   0  0  0  0  0  0
  -23.0581   19.4049  -17.2300 C   0  0  0  0  0  0
  -21.9464   19.2723  -15.8003 C   0  0  0  0  0  0
  -20.9491   21.2819  -13.1719 C   0  0  0  0  0  0
  -20.5319   22.9255  -13.2162 S   0  0  0  0  0  0
  -22.1674   21.1065  -12.5705 N   0  0  0  0  0  0
  -23.1411   20.0491  -12.4848 C   0  0  0  0  0  0
  -22.9969   19.2230  -11.2804 C   0  0  0  0  0  0
  -23.4537   20.2008   -9.8115 C   0  0  0  0  0  0
  -23.4149   22.1814   -9.7422 C   0  0  0  0  0  0
  -24.3986   23.2145   -8.9431 C   0  0  0  0  0  0
  -25.3934   22.3269   -8.1630 C   0  0  0  0  0  0
  -25.4209   20.2551   -8.1123 C   0  0  0  0  0  0
  -24.4319   19.3380   -8.9622 C   0  0  0  0  0  0
  -22.5669   21.9934  -12.2846 H   0  0  0  0  0  0
  1  2  1  0  0  0
  2  3  1  0  0  0
  3  4  2  0  0  0
  3  8  1  0  0  0
  4  5  1  0  0  0
  5  6  2  0  0  0
  6  7  1  0  0  0
  6  9  1  0  0  0
  7  8  2  0  0  0
  9 10  1  0  0  0
  9 17  1  0  0  0
 10 11  1  0  0  0
 10 18  1  0  0  0
 11 12  1  0  0  0
 12 13  1  0  0  0
 13 14  1  0  0  0
 13 17  1  0  0  0
 14 15  2  0  0  0
 15 16  1  0  0  0
 16 17  2  0  0  0
 18 19  2  0  0  0
 18 20  1  0  0  0
 20 21  1  0  0  0
 20 29  1  0  0  0
 21 22  1  0  0  0
 22 23  1  0  0  0
 23 24  2  0  0  0
 23 28  1  0  0  0
 24 25  1  0  0  0
 25 26  2  0  0  0
 26 27  1  0  0  0
 27 28  2  0  0  0
M  END
>  <CHROM.0>
-179.00203842,-167.68363397,-167.40922352,63.09161076,-32.09978578,179.83985991
-37.54886901,-161.72170591

>  <CHROM.1>
-73.28646943,130.52363852,-73.49542665,95.36719750,69.07824715,-22.99858669
-20.98271256,19.81870565,-13.82273815,-0.76126138,0.37661843,0.88299063

>  <Name>
F0533-0109

>  <RI>
3.44907e+07

>  <Rbt.Current_Directory>
/home/adria/Escritorio/rDock_CMTR_LC/2pxcA_model/inputs_sah

>  <Rbt.Executable>
rbdock ($Id: //depot/dev/client3/rdock/2013.1/src/exe/rbdock.cxx#4 $)

>  <Rbt.Library>
libRbt.so (2013.1, Build901 2013/11/27)

>  <Rbt.Parameter_File>
/home/adria/Escritorio/rDock_2013.1_src/data/scripts/dock.prm

>  <Rbt.Receptor>
sah_rdock.prm

>  <SCORE>
-396.157

>  <SCORE.INTER>
-11.5672

>  <SCORE.INTER.CONST>
1

>  <SCORE.INTER.POLAR>
0

>  <SCORE.INTER.REPUL>
0

>  <SCORE.INTER.ROT>
6

>  <SCORE.INTER.VDW>
-22.9672

>  <SCORE.INTER.norm>
-0.413115

>  <SCORE.INTRA>
-378.718

>  <SCORE.INTRA.DIHEDRAL>
1.15458

>  <SCORE.INTRA.DIHEDRAL.0>
6.4118

>  <SCORE.INTRA.POLAR>
0

>  <SCORE.INTRA.POLAR.0>
0

>  <SCORE.INTRA.REPUL>
0

>  <SCORE.INTRA.REPUL.0>
0

>  <SCORE.INTRA.VDW>
-379.295

>  <SCORE.INTRA.VDW.0>
375.96

>  <SCORE.INTRA.norm>
-13.5256

>  <SCORE.RESTR>
0

>  <SCORE.RESTR.CAVITY>
0

>  <SCORE.RESTR.norm>
0

>  <SCORE.SYSTEM>
-5.87183

>  <SCORE.SYSTEM.CONST>
0

>  <SCORE.SYSTEM.DIHEDRAL>
5.9364

>  <SCORE.SYSTEM.POLAR>
-3.59648

>  <SCORE.SYSTEM.VDW>
3.38801

>  <SCORE.SYSTEM.norm>
-0.209708

>  <SCORE.heavy>
28

>  <SCORE.norm>
-14.1485

$$$$
F0533-0109
  rDOCK(R)          3D
libRbt.so/2013.1/901 2013/11/27
 29 32  0  0  0  0  0  0  0  0999 V2000
  -21.4558   26.3529  -10.4701 C   0  0  0  0  0  0
  -22.4335   25.8393  -11.3861 O   0  0  0  0  0  0
  -22.3786   24.4942  -11.6033 C   0  0  0  0  0  0
  -21.3062   23.8901  -12.1742 C   0  0  0  0  0  0
  -21.3339   22.5206  -12.3211 C   0  0  0  0  0  0
  -22.3582   21.6134  -11.9478 C   0  0  0  0  0  0
  -23.4505   22.2635  -11.3798 C   0  0  0  0  0  0
  -23.4571   23.6813  -11.2243 C   0  0  0  0  0  0
  -22.2361   20.0030  -11.9163 C   0  0  0  0  0  0
  -21.7194   19.5034  -13.3785 N   0  0  0  0  0  0
  -22.9436   19.6529  -14.7682 C   0  0  0  0  0  0
  -24.8229   18.7285  -14.5258 C   0  0  0  0  0  0
  -25.1189   18.3974  -12.5936 N   0  0  0  0  0  0
  -26.5671   17.6523  -11.6471 C   0  0  0  0  0  0
  -26.0042   17.7060   -9.8452 C   0  0  0  0  0  0
  -24.1786   18.5295   -9.7110 C   0  0  0  0  0  0
  -23.5977   18.9286  -11.3845 C   0  0  0  0  0  0
  -20.7189   18.4758  -13.2418 C   0  0  0  0  0  0
  -20.9186   16.8208  -13.5561 S   0  0  0  0  0  0
  -19.4093   18.7615  -12.9591 N   0  0  0  0  0  0
  -18.5966   19.9482  -12.8893 C   0  0  0  0  0  0
  -18.7105   20.8010  -14.0781 C   0  0  0  0  0  0
  -17.9128   19.9802  -15.4966 C   0  0  0  0  0  0
  -17.1335   18.1588  -15.4289 C   0  0  0  0  0  0
  -17.0786   17.0064  -16.5875 C   0  0  0  0  0  0
  -17.7331   17.6366  -17.8367 C   0  0  0  0  0  0
  -18.4718   19.5661  -18.0018 C   0  0  0  0  0  0
  -18.5083   20.6040  -16.7923 C   0  0  0  0  0  0
  -18.8337   17.9281  -13.0034 H   0  0  0  0  0  0
  1  2  1  0  0  0
  2  3  1  0  0  0
  3  4  2  0  0  0
  3  8  1  0  0  0
  4  5  1  0  0  0
  5  6  2  0  0  0
  6  7  1  0  0  0
  6  9  1  0  0  0
  7  8  2  0  0  0
  9 10  1  0  0  0
  9 17  1  0  0  0
 10 11  1  0  0  0
 10 18  1  0  0  0
 11 12  1  0  0  0
 12 13  1  0  0  0
 13 14  1  0  0  0
 13 17  1  0  0  0
 14 15  2  0  0  0
 15 16  1  0  0  0
 16 17  2  0  0  0
 18 19  2  0  0  0
 18 20  1  0  0  0
 20 21  1  0  0  0
 20 29  1  0  0  0
 21 22  1  0  0  0
 22 23  1  0  0  0
 23 24  2  0  0  0
 23 28  1  0  0  0
 24 25  1  0  0  0
 25 26  2  0  0  0
 26 27  1  0  0  0
 27 28  2  0  0  0
M  END
>  <CHROM.0>
-172.89064519,62.26771707,-12.81983572,62.99805895,37.49700521,178.64953788
-156.54909270,-155.05913526

>  <CHROM.1>
-63.46892560,-53.89819036,106.80788771,-50.36044060,-70.11188301,3.85808062
-21.42706158,20.14750774,-13.18703304,-2.45340344,-0.58027456,-2.83739333

>  <Name>
F0533-0109

>  <RI>
3.44907e+07

>  <Rbt.Current_Directory>
/home/adria/Escritorio/rDock_CMTR_LC/2pxcA_model/inputs_sah

>  <Rbt.Executable>
rbdock ($Id: //depot/dev/client3/rdock/2013.1/src/exe/rbdock.cxx#4 $)

>  <Rbt.Library>
libRbt.so (2013.1, Build901 2013/11/27)

>  <Rbt.Parameter_File>
/home/adria/Escritorio/rDock_2013.1_src/data/scripts/dock.prm

>  <Rbt.Receptor>
sah_rdock.prm

>  <SCORE>
-378.074

>  <SCORE.INTER>
-6.01781

>  <SCORE.INTER.CONST>
1

>  <SCORE.INTER.POLAR>
-1.06161

>  <SCORE.INTER.REPUL>
0.0885348

>  <SCORE.INTER.ROT>
6

>  <SCORE.INTER.VDW>
-14.251

>  <SCORE.INTER.norm>
-0.214922

>  <SCORE.INTRA>
-378.166

>  <SCORE.INTRA.DIHEDRAL>
1.90572

>  <SCORE.INTRA.DIHEDRAL.0>
6.4118

>  <SCORE.INTRA.POLAR>
0

>  <SCORE.INTRA.POLAR.0>
0

>  <SCORE.INTRA.REPUL>
0

>  <SCORE.INTRA.REPUL.0>
0

>  <SCORE.INTRA.VDW>
-379.118

>  <SCORE.INTRA.VDW.0>
375.96

>  <SCORE.INTRA.norm>
-13.5059

>  <SCORE.RESTR>
0.585351

>  <SCORE.RESTR.CAVITY>
0.585351

>  <SCORE.RESTR.norm>
0.0209054

>  <SCORE.SYSTEM>
5.52432

>  <SCORE.SYSTEM.CONST>
0

>  <SCORE.SYSTEM.DIHEDRAL>
7.80164

>  <SCORE.SYSTEM.POLAR>
-3.93475

>  <SCORE.SYSTEM.VDW>
15.0016

>  <SCORE.SYSTEM.norm>
0.197297

>  <SCORE.heavy>
28

>  <SCORE.norm>
-13.5026

$$$$
F0533-0109
  rDOCK(R)          3D
libRbt.so/2013.1/901 2013/11/27
 29 32  0  0  0  0  0  0  0  0999 V2000
  -14.3214   19.5120  -17.6580 C   0  0  0  0  0  0
  -15.2825   18.4927  -17.3480 O   0  0  0  0  0  0
  -16.5119   18.9465  -16.9708 C   0  0  0  0  0  0
  -17.6252   18.7467  -17.7201 C   0  0  0  0  0  0
  -18.8266   19.2163  -17.2365 C   0  0  0  0  0  0
  -19.0812   19.9041  -16.0225 C   0  0  0  0  0  0
  -17.9189   20.1078  -15.2837 C   0  0  0  0  0  0
  -16.6581   19.6436  -15.7625 C   0  0  0  0  0  0
  -20.5363   20.2113  -15.3916 C   0  0  0  0  0  0
  -20.3894   20.2498  -13.7694 N   0  0  0  0  0  0
  -20.0774   18.6156  -12.9422 C   0  0  0  0  0  0
  -21.4398   17.0501  -13.3140 C   0  0  0  0  0  0
  -22.4506   17.4724  -14.9664 N   0  0  0  0  0  0
  -23.7819   16.5295  -15.9085 C   0  0  0  0  0  0
  -24.1980   17.6648  -17.3593 C   0  0  0  0  0  0
  -23.0649   19.3204  -17.2943 C   0  0  0  0  0  0
  -22.0113   19.2448  -15.8172 C   0  0  0  0  0  0
  -21.1419   21.3463  -13.2154 C   0  0  0  0  0  0
  -20.6552   22.9693  -13.1350 S   0  0  0  0  0  0
  -22.4396   21.2076  -12.7988 N   0  0  0  0  0  0
  -23.4583   20.1943  -12.8931 C   0  0  0  0  0  0
  -24.7871   20.7337  -13.2048 C   0  0  0  0  0  0
  -25.3565   21.7856  -11.8295 C   0  0  0  0  0  0
  -24.5633   21.7612  -10.0131 C   0  0  0  0  0  0
  -24.3573   22.9868   -8.9506 C   0  0  0  0  0  0
  -24.9702   24.2338   -9.6255 C   0  0  0  0  0  0
  -25.9043   24.3023  -11.4744 C   0  0  0  0  0  0
  -26.0209   23.0482  -12.4517 C   0  0  0  0  0  0
  -22.8388   22.1019  -12.5367 H   0  0  0  0  0  0
  1  2  1  0  0  0
  2  3  1  0  0  0
  3  4  2  0  0  0
  3  8  1  0  0  0
  4  5  1  0  0  0
  5  6  2  0  0  0
  6  7  1  0  0  0
  6  9  1  0  0  0
  7  8  2  0  0  0
  9 10  1  0  0  0
  9 17  1  0  0  0
 10 11  1  0  0  0
 10 18  1  0  0  0
 11 12  1  0  0  0
 12 13  1  0  0  0
 13 14  1  0  0  0
 13 17  1  0  0  0
 14 15  2  0  0  0
 15 16  1  0  0  0
 16 17  2  0  0  0
 18 19  2  0  0  0
 18 20  1  0  0  0
 20 21  1  0  0  0
 20 29  1  0  0  0
 21 22  1  0  0  0
 22 23  1  0  0  0
 23 24  2  0  0  0
 23 28  1  0  0  0
 24 25  1  0  0  0
 25 26  2  0  0  0
 26 27  1  0  0  0
 27 28  2  0  0  0
M  END
>  <CHROM.0>
-177.63661982,-73.79884719,-165.44414552,-61.45252936,168.15604588,178.10399441
-36.22636246,-165.25897965

>  <CHROM.1>
113.59644857,149.78079595,-81.16100297,-137.69338196,-64.90254634,-16.57062265
-21.25980253,20.30400127,-14.25587742,-0.68238101,0.22950046,0.73053623

>  <Name>
F0533-0109

>  <RI>
3.44907e+07

>  <Rbt.Current_Directory>
/home/adria/Escritorio/rDock_CMTR_LC/2pxcA_model/inputs_sah

>  <Rbt.Executable>
rbdock ($Id: //depot/dev/client3/rdock/2013.1/src/exe/rbdock.cxx#4 $)

>  <Rbt.Library>
libRbt.so (2013.1, Build901 2013/11/27)

>  <Rbt.Parameter_File>
/home/adria/Escritorio/rDock_2013.1_src/data/scripts/dock.prm

>  <Rbt.Receptor>
sah_rdock.prm

>  <SCORE>
-391.427

>  <SCORE.INTER>
-11.1888

>  <SCORE.INTER.CONST>
1

>  <SCORE.INTER.POLAR>
0

>  <SCORE.INTER.REPUL>
0

>  <SCORE.INTER.ROT>
6

>  <SCORE.INTER.VDW>
-22.5888

>  <SCORE.INTER.norm>
-0.399599

>  <SCORE.INTRA>
-378.242

>  <SCORE.INTRA.DIHEDRAL>
0.517565

>  <SCORE.INTRA.DIHEDRAL.0>
6.4118

>  <SCORE.INTRA.POLAR>
0

>  <SCORE.INTRA.POLAR.0>
0

>  <SCORE.INTRA.REPUL>
0

>  <SCORE.INTRA.REPUL.0>
0

>  <SCORE.INTRA.VDW>
-378.501

>  <SCORE.INTRA.VDW.0>
375.96

>  <SCORE.INTRA.norm>
-13.5086

>  <SCORE.RESTR>
0

>  <SCORE.RESTR.CAVITY>
0

>  <SCORE.RESTR.norm>
0

>  <SCORE.SYSTEM>
-1.99592

>  <SCORE.SYSTEM.CONST>
0

>  <SCORE.SYSTEM.DIHEDRAL>
3.64882

>  <SCORE.SYSTEM.POLAR>
-3.89183

>  <SCORE.SYSTEM.REPUL>
0.0399308

>  <SCORE.SYSTEM.VDW>
9.21225

>  <SCORE.SYSTEM.norm>
-0.0712829

>  <SCORE.heavy>
28

>  <SCORE.norm>
-13.9795

$$$$
F0533-0109
  rDOCK(R)          3D
libRbt.so/2013.1/901 2013/11/27
 29 32  0  0  0  0  0  0  0  0999 V2000
  -18.5276   25.2844   -9.8892 C   0  0  0  0  0  0
  -19.1243   24.9980  -11.1622 O   0  0  0  0  0  0
  -20.1729   24.1268  -11.1314 C   0  0  0  0  0  0
  -20.1746   22.9617  -11.8267 C   0  0  0  0  0  0
  -21.2688   22.1337  -11.7041 C   0  0  0  0  0  0
  -22.4393   22.3269  -10.9269 C   0  0  0  0  0  0
  -22.4153   23.5366  -10.2381 C   0  0  0  0  0  0
  -21.3021   24.4208  -10.3529 C   0  0  0  0  0  0
  -23.5745   21.2175  -10.6268 C   0  0  0  0  0  0
  -23.5476   20.1230  -11.8334 N   0  0  0  0  0  0
  -24.1759   20.7120  -13.4797 C   0  0  0  0  0  0
  -26.1156   21.5350  -13.5539 C   0  0  0  0  0  0
  -26.6448   22.0697  -11.7196 N   0  0  0  0  0  0
  -28.1980   22.8930  -11.0425 C   0  0  0  0  0  0
  -27.8682   23.0222   -9.1875 C   0  0  0  0  0  0
  -26.0565   22.2773   -8.7494 C   0  0  0  0  0  0
  -25.3006   21.6533  -10.2781 C   0  0  0  0  0  0
  -23.6722   18.7860  -11.3116 C   0  0  0  0  0  0
  -25.1026   18.0252  -10.8087 S   0  0  0  0  0  0
  -22.6219   17.9066  -11.2913 N   0  0  0  0  0  0
  -21.2908   17.8655  -11.8390 C   0  0  0  0  0  0
  -21.2494   18.1164  -13.2844 C   0  0  0  0  0  0
  -19.5174   18.1319  -13.8517 C   0  0  0  0  0  0
  -18.7923   16.9091  -15.2331 C   0  0  0  0  0  0
  -17.6456   17.1818  -16.3664 C   0  0  0  0  0  0
  -17.1580   18.6282  -16.1293 C   0  0  0  0  0  0
  -17.8012   19.9187  -14.6404 C   0  0  0  0  0  0
  -18.9571   19.5624  -13.6020 C   0  0  0  0  0  0
  -22.9193   16.9862  -10.9876 H   0  0  0  0  0  0
  1  2  1  0  0  0
  2  3  1  0  0  0
  3  4  2  0  0  0
  3  8  1  0  0  0
  4  5  1  0  0  0
  5  6  2  0  0  0
  6  7  1  0  0  0
  6  9  1  0  0  0
  7  8  2  0  0  0
  9 10  1  0  0  0
  9 17  1  0  0  0
 10 11  1  0  0  0
 10 18  1  0  0  0
 11 12  1  0  0  0
 12 13  1  0  0  0
 13 14  1  0  0  0
 13 17  1  0  0  0
 14 15  2  0  0  0
 15 16  1  0  0  0
 16 17  2  0  0  0
 18 19  2  0  0  0
 18 20  1  0  0  0
 20 21  1  0  0  0
 20 29  1  0  0  0
 21 22  1  0  0  0
 22 23  1  0  0  0
 23 24  2  0  0  0
 23 28  1  0  0  0
 24 25  1  0  0  0
 25 26  2  0  0  0
 26 27  1  0  0  0
 27 28  2  0  0  0
M  END
>  <CHROM.0>
-59.77865417,-73.39844607,-43.16371681,-61.60498620,-30.09196055,63.14898230
-35.58911897,-161.03387406

>  <CHROM.1>
-121.36573835,-25.29491431,78.99813958,-52.37975109,176.90436295,121.14151146
-22.29706342,20.81951139,-11.93844028,-0.53858967,0.29939166,0.43568734

>  <Name>
F0533-0109

>  <RI>
3.44907e+07

>  <Rbt.Current_Directory>
/home/adria/Escritorio/rDock_CMTR_LC/2pxcA_model/inputs_sah

>  <Rbt.Executable>
rbdock ($Id: //depot/dev/client3/rdock/2013.1/src/exe/rbdock.cxx#4 $)

>  <Rbt.Library>
libRbt.so (2013.1, Build901 2013/11/27)

>  <Rbt.Parameter_File>
/home/adria/Escritorio/rDock_2013.1_src/data/scripts/dock.prm

>  <Rbt.Receptor>
sah_rdock.prm

>  <SCORE>
-391.331

>  <SCORE.INTER>
-7.8019

>  <SCORE.INTER.CONST>
1

>  <SCORE.INTER.POLAR>
-0.153479

>  <SCORE.INTER.REPUL>
0

>  <SCORE.INTER.ROT>
6

>  <SCORE.INTER.VDW>
-18.6801

>  <SCORE.INTER.norm>
-0.278639

>  <SCORE.INTRA>
-377.346

>  <SCORE.INTRA.DIHEDRAL>
1.36193

>  <SCORE.INTRA.DIHEDRAL.0>
6.4118

>  <SCORE.INTRA.POLAR>
0

>  <SCORE.INTRA.POLAR.0>
0

>  <SCORE.INTRA.REPUL>
0

>  <SCORE.INTRA.REPUL.0>
0

>  <SCORE.INTRA.VDW>
-378.026

>  <SCORE.INTRA.VDW.0>
375.96

>  <SCORE.INTRA.norm>
-13.4766

>  <SCORE.RESTR>
1.10014

>  <SCORE.RESTR.CAVITY>
1.10014

>  <SCORE.RESTR.norm>
0.0392906

>  <SCORE.SYSTEM>
-7.28337

>  <SCORE.SYSTEM.CONST>
0

>  <SCORE.SYSTEM.DIHEDRAL>
6.91346

>  <SCORE.SYSTEM.POLAR>
-4.05558

>  <SCORE.SYSTEM.REPUL>
0.0392393

>  <SCORE.SYSTEM.VDW>
2.85268

>  <SCORE.SYSTEM.norm>
-0.26012

>  <SCORE.heavy>
28

>  <SCORE.norm>
-13.9761

$$$$
F0533-0109
  rDOCK(R)          3D
libRbt.so/2013.1/901 2013/11/27
 29 32  0  0  0  0  0  0  0  0999 V2000
  -24.1996   16.5164  -17.9566 C   0  0  0  0  0  0
  -25.2402   17.2571  -17.3030 O   0  0  0  0  0  0
  -24.8672   17.9018  -16.1607 C   0  0  0  0  0  0
  -24.0643   17.3298  -15.2285 C   0  0  0  0  0  0
  -23.7182   18.0759  -14.1234 C   0  0  0  0  0  0
  -24.0913   19.4065  -13.8045 C   0  0  0  0  0  0
  -24.9267   19.9607  -14.7707 C   0  0  0  0  0  0
  -25.3124   19.2101  -15.9206 C   0  0  0  0  0  0
  -23.4605   20.3139  -12.6262 C   0  0  0  0  0  0
  -23.7689   19.5846  -11.2023 N   0  0  0  0  0  0
  -25.5403   19.6104  -10.6423 C   0  0  0  0  0  0
  -26.4976   21.4833  -10.4969 C   0  0  0  0  0  0
  -25.4814   22.7972  -11.5792 N   0  0  0  0  0  0
  -25.7645   24.6242  -11.9408 C   0  0  0  0  0  0
  -24.3099   25.0955  -13.0494 C   0  0  0  0  0  0
  -23.1398   23.4981  -13.3784 C   0  0  0  0  0  0
  -23.8149   22.0851  -12.4590 C   0  0  0  0  0  0
  -22.6119   19.6304  -10.3451 C   0  0  0  0  0  0
  -22.6071   19.8431   -8.6621 S   0  0  0  0  0  0
  -21.3492   19.3622  -10.8039 N   0  0  0  0  0  0
  -20.7736   18.8394  -12.0159 C   0  0  0  0  0  0
  -20.0950   19.8595  -12.8237 C   0  0  0  0  0  0
  -19.6898   19.1706  -14.4618 C   0  0  0  0  0  0
  -18.4911   17.6176  -14.7458 C   0  0  0  0  0  0
  -18.5657   16.4380  -15.8756 C   0  0  0  0  0  0
  -19.7748   16.7904  -16.7700 C   0  0  0  0  0  0
  -21.0015   18.4511  -16.5882 C   0  0  0  0  0  0
  -20.8618   19.5284  -15.4216 C   0  0  0  0  0  0
  -20.6791   19.3402  -10.0435 H   0  0  0  0  0  0
  1  2  1  0  0  0
  2  3  1  0  0  0
  3  4  2  0  0  0
  3  8  1  0  0  0
  4  5  1  0  0  0
  5  6  2  0  0  0
  6  7  1  0  0  0
  6  9  1  0  0  0
  7  8  2  0  0  0
  9 10  1  0  0  0
  9 17  1  0  0  0
 10 11  1  0  0  0
 10 18  1  0  0  0
 11 12  1  0  0  0
 12 13  1  0  0  0
 13 14  1  0  0  0
 13 17  1  0  0  0
 14 15  2  0  0  0
 15 16  1  0  0  0
 16 17  2  0  0  0
 18 19  2  0  0  0
 18 20  1  0  0  0
 20 21  1  0  0  0
 20 29  1  0  0  0
 21 22  1  0  0  0
 22 23  1  0  0  0
 23 24  2  0  0  0
 23 28  1  0  0  0
 24 25  1  0  0  0
 25 26  2  0  0  0
 26 27  1  0  0  0
 27 28  2  0  0  0
M  END
>  <CHROM.0>
-179.42718641,-168.98008263,-163.57325594,146.24453946,168.36381516,-56.31210415
41.99597468,-82.67407780

>  <CHROM.1>
-42.29176557,-62.28923945,142.97869260,107.28426605,-169.19309158,-61.44739607
-23.00496946,19.63720216,-13.37527002,1.14139578,0.45145325,-2.06882657

>  <Name>
F0533-0109

>  <RI>
3.44907e+07

>  <Rbt.Current_Directory>
/home/adria/Escritorio/rDock_CMTR_LC/2pxcA_model/inputs_sah

>  <Rbt.Executable>
rbdock ($Id: //depot/dev/client3/rdock/2013.1/src/exe/rbdock.cxx#4 $)

>  <Rbt.Library>
libRbt.so (2013.1, Build901 2013/11/27)

>  <Rbt.Parameter_File>
/home/adria/Escritorio/rDock_2013.1_src/data/scripts/dock.prm

>  <Rbt.Receptor>
sah_rdock.prm

>  <SCORE>
-377.988

>  <SCORE.INTER>
-6.75488

>  <SCORE.INTER.CONST>
1

>  <SCORE.INTER.POLAR>
-0.877436

>  <SCORE.INTER.REPUL>
0.0965959

>  <SCORE.INTER.ROT>
6

>  <SCORE.INTER.VDW>
-15.6546

>  <SCORE.INTER.norm>
-0.241246

>  <SCORE.INTRA>
-378.258

>  <SCORE.INTRA.DIHEDRAL>
0.0147375

>  <SCORE.INTRA.DIHEDRAL.0>
6.4118

>  <SCORE.INTRA.POLAR>
0

>  <SCORE.INTRA.POLAR.0>
0

>  <SCORE.INTRA.REPUL>
0

>  <SCORE.INTRA.REPUL.0>
0

>  <SCORE.INTRA.VDW>
-378.266

>  <SCORE.INTRA.VDW.0>
375.96

>  <SCORE.INTRA.norm>
-13.5092

>  <SCORE.RESTR>
0

>  <SCORE.RESTR.CAVITY>
0

>  <SCORE.RESTR.norm>
0

>  <SCORE.SYSTEM>
7.02502

>  <SCORE.SYSTEM.CONST>
0

>  <SCORE.SYSTEM.DIHEDRAL>
11.6596

>  <SCORE.SYSTEM.POLAR>
-2.51177

>  <SCORE.SYSTEM.VDW>
9.73521

>  <SCORE.SYSTEM.norm>
0.250893

>  <SCORE.heavy>
28

>  <SCORE.norm>
-13.4996

$$$$
F0533-0109
  rDOCK(R)          3D
libRbt.so/2013.1/901 2013/11/27
 29 32  0  0  0  0  0  0  0  0999 V2000
  -15.0357   15.3142  -18.8399 C   0  0  0  0  0  0
  -15.1436   15.8826  -17.5269 O   0  0  0  0  0  0
  -16.2913   16.5784  -17.2857 C   0  0  0  0  0  0
  -17.3640   16.0249  -16.6660 C   0  0  0  0  0  0
  -18.4654   16.8208  -16.4394 C   0  0  0  0  0  0
  -18.6501   18.1874  -16.7707 C   0  0  0  0  0  0
  -17.5401   18.7226  -17.4186 C   0  0  0  0  0  0
  -16.3888   17.9216  -17.6779 C   0  0  0  0  0  0
  -19.8575   19.1332  -16.2637 C   0  0  0  0  0  0
  -19.5649   19.5450  -14.7147 N   0  0  0  0  0  0
  -19.7462   18.1837  -13.4633 C   0  0  0  0  0  0
  -21.5807   17.1465  -13.3985 C   0  0  0  0  0  0
  -22.5325   17.4401  -15.1126 N   0  0  0  0  0  0
  -24.1794   16.8025  -15.7682 C   0  0  0  0  0  0
  -24.3171   17.5860  -17.4811 C   0  0  0  0  0  0
  -22.6946   18.7027  -17.8678 C   0  0  0  0  0  0
  -21.6020   18.6601  -16.4180 C   0  0  0  0  0  0
  -19.8560   20.9386  -14.4941 C   0  0  0  0  0  0
  -19.0952   22.2611  -15.2358 S   0  0  0  0  0  0
  -20.9135   21.3539  -13.7287 N   0  0  0  0  0  0
  -22.0578   20.7328  -13.1134 C   0  0  0  0  0  0
  -22.1959   21.0529  -11.6878 C   0  0  0  0  0  0
  -22.6429   22.8096  -11.4973 C   0  0  0  0  0  0
  -21.4174   24.1942  -10.7830 C   0  0  0  0  0  0
  -21.2799   25.7721  -11.1888 C   0  0  0  0  0  0
  -22.3695   26.0273  -12.2535 C   0  0  0  0  0  0
  -23.7459   24.6506  -12.9650 C   0  0  0  0  0  0
  -23.7702   23.1185  -12.5251 C   0  0  0  0  0  0
  -21.0243   22.3607  -13.7706 H   0  0  0  0  0  0
  1  2  1  0  0  0
  2  3  1  0  0  0
  3  4  2  0  0  0
  3  8  1  0  0  0
  4  5  1  0  0  0
  5  6  2  0  0  0
  6  7  1  0  0  0
  6  9  1  0  0  0
  7  8  2  0  0  0
  9 10  1  0  0  0
  9 17  1  0  0  0
 10 11  1  0  0  0
 10 18  1  0  0  0
 11 12  1  0  0  0
 12 13  1  0  0  0
 13 14  1  0  0  0
 13 17  1  0  0  0
 14 15  2  0  0  0
 15 16  1  0  0  0
 16 17  2  0  0  0
 18 19  2  0  0  0
 18 20  1  0  0  0
 20 21  1  0  0  0
 20 29  1  0  0  0
 21 22  1  0  0  0
 22 23  1  0  0  0
 23 24  2  0  0  0
 23 28  1  0  0  0
 24 25  1  0  0  0
 25 26  2  0  0  0
 26 27  1  0  0  0
 27 28  2  0  0  0
M  END
>  <CHROM.0>
-60.98745877,66.14246555,-129.05748475,64.53555501,-30.84897641,60.75425785
82.10048556,-159.79843839

>  <CHROM.1>
96.47223421,76.02770917,-62.28480938,128.51506228,69.10397470,-109.20516661
-20.26295631,19.77570697,-14.97139280,-1.02945236,0.18384287,0.52219128

>  <Name>
F0533-0109

>  <RI>
3.44907e+07

>  <Rbt.Current_Directory>
/home/adria/Escritorio/rDock_CMTR_LC/2pxcA_model/inputs_sah

>  <Rbt.Executable>
rbdock ($Id: //depot/dev/client3/rdock/2013.1/src/exe/rbdock.cxx#4 $)

>  <Rbt.Library>
libRbt.so (2013.1, Build901 2013/11/27)

>  <Rbt.Parameter_File>
/home/adria/Escritorio/rDock_2013.1_src/data/scripts/dock.prm

>  <Rbt.Receptor>
sah_rdock.prm

>  <SCORE>
-397.388

>  <SCORE.INTER>
-13.7651

>  <SCORE.INTER.CONST>
1

>  <SCORE.INTER.POLAR>
0

>  <SCORE.INTER.REPUL>
0

>  <SCORE.INTER.ROT>
6

>  <SCORE.INTER.VDW>
-25.1651

>  <SCORE.INTER.norm>
-0.491612

>  <SCORE.INTRA>
-376.952

>  <SCORE.INTRA.DIHEDRAL>
3.17443

>  <SCORE.INTRA.DIHEDRAL.0>
6.4118

>  <SCORE.INTRA.POLAR>
0

>  <SCORE.INTRA.POLAR.0>
0

>  <SCORE.INTRA.REPUL>
0

>  <SCORE.INTRA.REPUL.0>
0

>  <SCORE.INTRA.VDW>
-378.539

>  <SCORE.INTRA.VDW.0>
375.96

>  <SCORE.INTRA.norm>
-13.4626

>  <SCORE.RESTR>
0

>  <SCORE.RESTR.CAVITY>
0

>  <SCORE.RESTR.norm>
0

>  <SCORE.SYSTEM>
-6.67064

>  <SCORE.SYSTEM.CONST>
0

>  <SCORE.SYSTEM.DIHEDRAL>
8.78237

>  <SCORE.SYSTEM.POLAR>
-4.1767

>  <SCORE.SYSTEM.VDW>
3.13897

>  <SCORE.SYSTEM.norm>
-0.238237

>  <SCORE.heavy>
28

>  <SCORE.norm>
-14.1924

$$$$
F0533-0109
  rDOCK(R)          3D
libRbt.so/2013.1/901 2013/11/27
 29 32  0  0  0  0  0  0  0  0999 V2000
  -25.4950   20.6336  -18.5345 C   0  0  0  0  0  0
  -25.3743   19.2721  -18.0984 O   0  0  0  0  0  0
  -24.2416   18.9835  -17.3959 C   0  0  0  0  0  0
  -22.9987   19.1542  -17.9127 C   0  0  0  0  0  0
  -21.9165   18.8643  -17.1111 C   0  0  0  0  0  0
  -21.9099   18.3961  -15.7723 C   0  0  0  0  0  0
  -23.1979   18.2159  -15.2755 C   0  0  0  0  0  0
  -24.3389   18.4964  -16.0841 C   0  0  0  0  0  0
  -20.6211   18.3095  -14.8023 C   0  0  0  0  0  0
  -20.1405   19.8278  -14.4582 N   0  0  0  0  0  0
  -19.3614   20.7707  -15.8568 C   0  0  0  0  0  0
  -17.7060   19.8982  -16.8283 C   0  0  0  0  0  0
  -17.6976   17.9545  -16.4378 N   0  0  0  0  0  0
  -16.5582   16.5600  -16.9908 C   0  0  0  0  0  0
  -17.2705   15.0313  -16.1409 C   0  0  0  0  0  0
  -18.8955   15.5241  -15.0706 C   0  0  0  0  0  0
  -19.1578   17.3159  -15.2057 C   0  0  0  0  0  0
  -19.7995   19.9507  -13.0639 C   0  0  0  0  0  0
  -18.2897   20.3886  -12.4262 S   0  0  0  0  0  0
  -20.7361   19.8516  -12.0691 N   0  0  0  0  0  0
  -22.1732   19.7960  -11.9972 C   0  0  0  0  0  0
  -22.7240   20.4966  -10.8313 C   0  0  0  0  0  0
  -22.8694   22.2755  -11.2008 C   0  0  0  0  0  0
  -21.5473   23.6379  -10.6305 C   0  0  0  0  0  0
  -21.0603   24.9994  -11.3939 C   0  0  0  0  0  0
  -21.8949   25.0734  -12.6916 C   0  0  0  0  0  0
  -23.3623   23.7387  -13.2927 C   0  0  0  0  0  0
  -23.7368   22.4160  -12.4855 C   0  0  0  0  0  0
  -20.3343   20.0666  -11.1635 H   0  0  0  0  0  0
  1  2  1  0  0  0
  2  3  1  0  0  0
  3  4  2  0  0  0
  3  8  1  0  0  0
  4  5  1  0  0  0
  5  6  2  0  0  0
  6  7  1  0  0  0
  6  9  1  0  0  0
  7  8  2  0  0  0
  9 10  1  0  0  0
  9 17  1  0  0  0
 10 11  1  0  0  0
 10 18  1  0  0  0
 11 12  1  0  0  0
 12 13  1  0  0  0
 13 14  1  0  0  0
 13 17  1  0  0  0
 14 15  2  0  0  0
 15 16  1  0  0  0
 16 17  2  0  0  0
 18 19  2  0  0  0
 18 20  1  0  0  0
 20 21  1  0  0  0
 20 29  1  0  0  0
 21 22  1  0  0  0
 22 23  1  0  0  0
 23 24  2  0  0  0
 23 28  1  0  0  0
 24 25  1  0  0  0
 25 26  2  0  0  0
 26 27  1  0  0  0
 27 28  2  0  0  0
M  END
>  <CHROM.0>
-60.12124911,-167.51514812,74.34765950,65.08379277,-30.91718588,63.10773155
-36.99782068,-163.55020757

>  <CHROM.1>
-59.39535904,67.78449510,119.65220021,-143.84184346,83.31705301,-98.77249162
-21.13410717,19.88265585,-14.56557185,1.14739078,0.40301617,-2.29408480

>  <Name>
F0533-0109

>  <RI>
3.44907e+07

>  <Rbt.Current_Directory>
/home/adria/Escritorio/rDock_CMTR_LC/2pxcA_model/inputs_sah

>  <Rbt.Executable>
rbdock ($Id: //depot/dev/client3/rdock/2013.1/src/exe/rbdock.cxx#4 $)

>  <Rbt.Library>
libRbt.so (2013.1, Build901 2013/11/27)

>  <Rbt.Parameter_File>
/home/adria/Escritorio/rDock_2013.1_src/data/scripts/dock.prm

>  <Rbt.Receptor>
sah_rdock.prm

>  <SCORE>
-395.058

>  <SCORE.INTER>
-12.4145

>  <SCORE.INTER.CONST>
1

>  <SCORE.INTER.POLAR>
-0.407154

>  <SCORE.INTER.REPUL>
0

>  <SCORE.INTER.ROT>
6

>  <SCORE.INTER.VDW>
-22.4301

>  <SCORE.INTER.norm>
-0.443374

>  <SCORE.INTRA>
-376.076

>  <SCORE.INTRA.DIHEDRAL>
2.58681

>  <SCORE.INTRA.DIHEDRAL.0>
6.4118

>  <SCORE.INTRA.POLAR>
0

>  <SCORE.INTRA.POLAR.0>
0

>  <SCORE.INTRA.REPUL>
0

>  <SCORE.INTRA.REPUL.0>
0

>  <SCORE.INTRA.VDW>
-377.37

>  <SCORE.INTRA.VDW.0>
375.96

>  <SCORE.INTRA.norm>
-13.4313

>  <SCORE.RESTR>
0

>  <SCORE.RESTR.CAVITY>
0

>  <SCORE.RESTR.norm>
0

>  <SCORE.SYSTEM>
-6.56722

>  <SCORE.SYSTEM.CONST>
0

>  <SCORE.SYSTEM.DIHEDRAL>
6.34471

>  <SCORE.SYSTEM.POLAR>
-3.7544

>  <SCORE.SYSTEM.VDW>
3.02538

>  <SCORE.SYSTEM.norm>
-0.234544

>  <SCORE.heavy>
28

>  <SCORE.norm>
-14.1092

$$$$
