F2272-0171
  rDOCK(R)          3D
libRbt.so/2013.1/901 2013/11/27
 29 32  0  0  0  0  0  0  0  0999 V2000
  -14.0524   19.3139  -16.6040 C   0  0  0  0  0  0
  -15.3468   20.0759  -16.7988 C   0  0  0  0  0  0
  -16.4557   19.3493  -16.2531 O   0  0  0  0  0  0
  -17.6718   19.6797  -16.7468 C   0  0  0  0  0  0
  -17.9458   20.5495  -17.5556 O   0  0  0  0  0  0
  -18.7233   18.9117  -15.9657 C   0  0  0  0  0  0
  -19.3711   19.6053  -15.0842 N   0  0  0  0  0  0
  -20.3402   18.9815  -14.3395 N   0  3  0  0  0  0
  -20.6713   17.6340  -14.5000 C   0  0  0  0  0  0
  -21.5304   17.0015  -13.8877 O   0  0  0  0  0  0
  -19.9168   16.9056  -15.5458 C   0  0  0  0  0  0
  -18.9460   17.4708  -16.2701 C   0  0  0  0  0  0
  -18.2006   16.8211  -17.2419 N   0  0  0  0  0  0
  -17.3578   17.5449  -18.2007 C   0  0  0  0  0  0
  -15.9580   16.9275  -18.1937 C   0  0  0  0  0  0
  -16.0135   15.4290  -18.3721 C   0  0  0  0  0  0
  -17.1904   14.7184  -18.0637 C   0  0  0  0  0  0
  -18.4448   15.4158  -17.5893 C   0  0  0  0  0  0
  -17.2144   13.3256  -18.2307 C   0  0  0  0  0  0
  -16.0793   12.6445  -18.6662 C   0  0  0  0  0  0
  -14.9078   13.3466  -18.9383 C   0  0  0  0  0  0
  -14.8718   14.7325  -18.7890 C   0  0  0  0  0  0
  -20.8903   19.8145  -13.3094 C   0  0  0  0  0  0
  -22.2764   20.1014  -13.2208 C   0  0  0  0  0  0
  -23.3247   19.4411  -14.0799 C   0  0  0  0  0  0
  -22.7310   21.0362  -12.2706 C   0  0  0  0  0  0
  -21.8480   21.6557  -11.3913 C   0  0  0  0  0  0
  -20.4956   21.3481  -11.4449 C   0  0  0  0  0  0
  -20.0235   20.4350  -12.3911 C   0  0  0  0  0  0
  1  2  1  0  0  0
  2  3  1  0  0  0
  3  4  1  0  0  0
  4  5  2  0  0  0
  4  6  1  0  0  0
  6  7  2  0  0  0
  6 12  1  0  0  0
  7  8  1  0  0  0
  8  9  1  0  0  0
  8 23  1  0  0  0
  9 10  2  0  0  0
  9 11  1  0  0  0
 11 12  2  0  0  0
 12 13  1  0  0  0
 13 14  1  0  0  0
 13 18  1  0  0  0
 14 15  1  0  0  0
 15 16  1  0  0  0
 16 17  2  0  0  0
 16 22  1  0  0  0
 17 18  1  0  0  0
 17 19  1  0  0  0
 19 20  2  0  0  0
 20 21  1  0  0  0
 21 22  2  0  0  0
 23 24  2  0  0  0
 23 29  1  0  0  0
 24 25  1  0  0  0
 24 26  1  0  0  0
 26 27  2  0  0  0
 27 28  1  0  0  0
 28 29  2  0  0  0
M  END
>  <CHROM.0>
-60.83276269,-73.77658532,-44.52888587,64.81764242,-31.77583945,64.92720885
83.68553222,-49.62237130

>  <CHROM.1>
-158.42235965,-3.11663970,103.40957507,122.77578555,-12.54330626,-18.55906215
17.97576411,-15.87348514,-0.82303919,0.50441731,0.39306060

>  <Name>
F2272-0171

>  <RI>
3.72268e+07

>  <Rbt.Current_Directory>
/home/adria/Escritorio/rDock_CMTR_LC/2pxcA_model/inputs_sah

>  <Rbt.Executable>
rbdock ($Id: //depot/dev/client3/rdock/2013.1/src/exe/rbdock.cxx#4 $)

>  <Rbt.Library>
libRbt.so (2013.1, Build901 2013/11/27)

>  <Rbt.Parameter_File>
/home/adria/Escritorio/rDock_2013.1_src/data/scripts/dock.prm

>  <Rbt.Receptor>
sah_rdock.prm

>  <SCORE>
-53.6849

>  <SCORE.INTER>
-11.7153

>  <SCORE.INTER.CONST>
1

>  <SCORE.INTER.POLAR>
-0.835024

>  <SCORE.INTER.REPUL>
0

>  <SCORE.INTER.ROT>
5

>  <SCORE.INTER.VDW>
-19.2762

>  <SCORE.INTER.norm>
-0.403975

>  <SCORE.INTRA>
-36.6089

>  <SCORE.INTRA.DIHEDRAL>
-82.8925

>  <SCORE.INTRA.DIHEDRAL.0>
98.4563

>  <SCORE.INTRA.POLAR>
0

>  <SCORE.INTRA.POLAR.0>
0

>  <SCORE.INTRA.REPUL>
0

>  <SCORE.INTRA.REPUL.0>
0

>  <SCORE.INTRA.VDW>
4.83734

>  <SCORE.INTRA.VDW.0>
-1.92757

>  <SCORE.INTRA.norm>
-1.26238

>  <SCORE.RESTR>
0

>  <SCORE.RESTR.CAVITY>
0

>  <SCORE.RESTR.norm>
0

>  <SCORE.SYSTEM>
-5.36068

>  <SCORE.SYSTEM.CONST>
0

>  <SCORE.SYSTEM.DIHEDRAL>
8.89763

>  <SCORE.SYSTEM.POLAR>
-3.6567

>  <SCORE.SYSTEM.REPUL>
0.0526195

>  <SCORE.SYSTEM.VDW>
2.3602

>  <SCORE.SYSTEM.norm>
-0.184851

>  <SCORE.heavy>
29

>  <SCORE.norm>
-1.8512

$$$$
F2272-0171
  rDOCK(R)          3D
libRbt.so/2013.1/901 2013/11/27
 29 32  0  0  0  0  0  0  0  0999 V2000
  -24.3488   18.3140  -17.1374 C   0  0  0  0  0  0
  -23.4904   17.9975  -15.9303 C   0  0  0  0  0  0
  -22.9207   19.1924  -15.3799 O   0  0  0  0  0  0
  -22.0666   19.0109  -14.3458 C   0  0  0  0  0  0
  -21.8144   17.9784  -13.7490 O   0  0  0  0  0  0
  -21.5922   20.3760  -13.8797 C   0  0  0  0  0  0
  -22.3643   20.9647  -13.0224 N   0  0  0  0  0  0
  -22.0013   22.2014  -12.5515 N   0  3  0  0  0  0
  -20.8271   22.8486  -12.9436 C   0  0  0  0  0  0
  -20.4205   23.9455  -12.5638 O   0  0  0  0  0  0
  -19.9726   22.1085  -13.9006 C   0  0  0  0  0  0
  -20.3070   20.9162  -14.4039 C   0  0  0  0  0  0
  -19.5489   20.2001  -15.3174 N   0  0  0  0  0  0
  -18.2991   20.7219  -15.8822 C   0  0  0  0  0  0
  -17.2037   19.6663  -15.7194 C   0  0  0  0  0  0
  -17.6483   18.3223  -16.2449 C   0  0  0  0  0  0
  -19.0199   18.0234  -16.3659 C   0  0  0  0  0  0
  -20.0918   19.0323  -16.0221 C   0  0  0  0  0  0
  -19.4077   16.7648  -16.8496 C   0  0  0  0  0  0
  -18.4507   15.8064  -17.1780 C   0  0  0  0  0  0
  -17.0967   16.0939  -17.0257 C   0  0  0  0  0  0
  -16.6952   17.3446  -16.5578 C   0  0  0  0  0  0
  -22.9976   22.8068  -11.7159 C   0  0  0  0  0  0
  -23.8369   23.8563  -12.1694 C   0  0  0  0  0  0
  -23.8895   24.3274  -13.6005 C   0  0  0  0  0  0
  -24.6967   24.4988  -11.2576 C   0  0  0  0  0  0
  -24.7646   24.0969   -9.9270 C   0  0  0  0  0  0
  -23.9763   23.0428   -9.4865 C   0  0  0  0  0  0
  -23.1057   22.4032  -10.3724 C   0  0  0  0  0  0
  1  2  1  0  0  0
  2  3  1  0  0  0
  3  4  1  0  0  0
  4  5  2  0  0  0
  4  6  1  0  0  0
  6  7  2  0  0  0
  6 12  1  0  0  0
  7  8  1  0  0  0
  8  9  1  0  0  0
  8 23  1  0  0  0
  9 10  2  0  0  0
  9 11  1  0  0  0
 11 12  2  0  0  0
 12 13  1  0  0  0
 13 14  1  0  0  0
 13 18  1  0  0  0
 14 15  1  0  0  0
 15 16  1  0  0  0
 16 17  2  0  0  0
 16 22  1  0  0  0
 17 18  1  0  0  0
 17 19  1  0  0  0
 19 20  2  0  0  0
 20 21  1  0  0  0
 21 22  2  0  0  0
 23 24  2  0  0  0
 23 29  1  0  0  0
 24 25  1  0  0  0
 24 26  1  0  0  0
 26 27  2  0  0  0
 27 28  1  0  0  0
 28 29  2  0  0  0
M  END
>  <CHROM.0>
39.46292028,-71.97154764,-129.15704714,63.39497604,-30.18182629,-56.12986856
-157.92546523,-162.05122918

>  <CHROM.1>
-176.00188311,-7.23237553,85.74758996,-104.02768466,178.15690329,-21.16650170
20.43809778,-14.21224171,1.00593219,-0.14140743,-2.51904833

>  <Name>
F2272-0171

>  <RI>
3.72268e+07

>  <Rbt.Current_Directory>
/home/adria/Escritorio/rDock_CMTR_LC/2pxcA_model/inputs_sah

>  <Rbt.Executable>
rbdock ($Id: //depot/dev/client3/rdock/2013.1/src/exe/rbdock.cxx#4 $)

>  <Rbt.Library>
libRbt.so (2013.1, Build901 2013/11/27)

>  <Rbt.Parameter_File>
/home/adria/Escritorio/rDock_2013.1_src/data/scripts/dock.prm

>  <Rbt.Receptor>
sah_rdock.prm

>  <SCORE>
-50.0884

>  <SCORE.INTER>
-9.30439

>  <SCORE.INTER.CONST>
1

>  <SCORE.INTER.POLAR>
0

>  <SCORE.INTER.REPUL>
0

>  <SCORE.INTER.ROT>
5

>  <SCORE.INTER.VDW>
-19.7044

>  <SCORE.INTER.norm>
-0.320841

>  <SCORE.INTRA>
-37.8399

>  <SCORE.INTRA.DIHEDRAL>
-83.9947

>  <SCORE.INTRA.DIHEDRAL.0>
98.4563

>  <SCORE.INTRA.POLAR>
0

>  <SCORE.INTRA.POLAR.0>
0

>  <SCORE.INTRA.REPUL>
0

>  <SCORE.INTRA.REPUL.0>
0

>  <SCORE.INTRA.VDW>
4.1575

>  <SCORE.INTRA.VDW.0>
-1.92757

>  <SCORE.INTRA.norm>
-1.30482

>  <SCORE.RESTR>
0

>  <SCORE.RESTR.CAVITY>
0

>  <SCORE.RESTR.norm>
0

>  <SCORE.SYSTEM>
-2.94412

>  <SCORE.SYSTEM.CONST>
0

>  <SCORE.SYSTEM.DIHEDRAL>
11.1595

>  <SCORE.SYSTEM.POLAR>
-4.48601

>  <SCORE.SYSTEM.REPUL>
0.161585

>  <SCORE.SYSTEM.VDW>
5.92062

>  <SCORE.SYSTEM.norm>
-0.101521

>  <SCORE.heavy>
29

>  <SCORE.norm>
-1.72719

$$$$
F2272-0171
  rDOCK(R)          3D
libRbt.so/2013.1/901 2013/11/27
 29 32  0  0  0  0  0  0  0  0999 V2000
  -14.3191   20.9186  -16.4823 C   0  0  0  0  0  0
  -14.5266   19.4340  -16.6988 C   0  0  0  0  0  0
  -15.7496   18.9944  -16.0936 O   0  0  0  0  0  0
  -16.8854   19.4521  -16.6702 C   0  0  0  0  0  0
  -17.0189   20.4019  -17.4224 O   0  0  0  0  0  0
  -18.0584   18.7030  -16.0630 C   0  0  0  0  0  0
  -18.7015   19.3425  -15.1382 N   0  0  0  0  0  0
  -19.7766   18.7320  -14.5428 N   0  3  0  0  0  0
  -20.2193   17.4563  -14.9003 C   0  0  0  0  0  0
  -21.1762   16.8427  -14.4304 O   0  0  0  0  0  0
  -19.4614   16.7923  -15.9858 C   0  0  0  0  0  0
  -18.3916   17.3423  -16.5687 C   0  0  0  0  0  0
  -17.6409   16.7475  -17.5710 N   0  0  0  0  0  0
  -16.6097   17.4766  -18.3183 C   0  0  0  0  0  0
  -15.3153   16.6612  -18.2994 C   0  0  0  0  0  0
  -15.5536   15.2349  -18.7347 C   0  0  0  0  0  0
  -16.8422   14.6711  -18.6517 C   0  0  0  0  0  0
  -18.0343   15.4672  -18.1720 C   0  0  0  0  0  0
  -17.0364   13.3415  -19.0550 C   0  0  0  0  0  0
  -15.9637   12.5732  -19.5036 C   0  0  0  0  0  0
  -14.6856   13.1239  -19.5529 C   0  0  0  0  0  0
  -14.4786   14.4478  -19.1670 C   0  0  0  0  0  0
  -20.3205   19.4804  -13.4467 C   0  0  0  0  0  0
  -20.2774   20.8970  -13.3956 C   0  0  0  0  0  0
  -19.8166   21.7625  -14.5408 C   0  0  0  0  0  0
  -20.7036   21.5615  -12.2293 C   0  0  0  0  0  0
  -21.2018   20.8539  -11.1394 C   0  0  0  0  0  0
  -21.2857   19.4698  -11.1989 C   0  0  0  0  0  0
  -20.8533   18.7918  -12.3413 C   0  0  0  0  0  0
  1  2  1  0  0  0
  2  3  1  0  0  0
  3  4  1  0  0  0
  4  5  2  0  0  0
  4  6  1  0  0  0
  6  7  2  0  0  0
  6 12  1  0  0  0
  7  8  1  0  0  0
  8  9  1  0  0  0
  8 23  1  0  0  0
  9 10  2  0  0  0
  9 11  1  0  0  0
 11 12  2  0  0  0
 12 13  1  0  0  0
 13 14  1  0  0  0
 13 18  1  0  0  0
 14 15  1  0  0  0
 15 16  1  0  0  0
 16 17  2  0  0  0
 16 22  1  0  0  0
 17 18  1  0  0  0
 17 19  1  0  0  0
 19 20  2  0  0  0
 20 21  1  0  0  0
 21 22  2  0  0  0
 23 24  2  0  0  0
 23 29  1  0  0  0
 24 25  1  0  0  0
 24 26  1  0  0  0
 26 27  2  0  0  0
 27 28  1  0  0  0
 28 29  2  0  0  0
M  END
>  <CHROM.0>
-61.01012714,67.31443756,-128.48649168,66.31843843,167.89930897,63.14275247
82.66200714,-160.88526901

>  <CHROM.1>
68.40617752,-18.17719626,99.84351541,30.72665940,-8.80278865,-17.93261200
17.88009722,-16.08825492,-0.90837938,0.59111546,0.42856204

>  <Name>
F2272-0171

>  <RI>
3.72268e+07

>  <Rbt.Current_Directory>
/home/adria/Escritorio/rDock_CMTR_LC/2pxcA_model/inputs_sah

>  <Rbt.Executable>
rbdock ($Id: //depot/dev/client3/rdock/2013.1/src/exe/rbdock.cxx#4 $)

>  <Rbt.Library>
libRbt.so (2013.1, Build901 2013/11/27)

>  <Rbt.Parameter_File>
/home/adria/Escritorio/rDock_2013.1_src/data/scripts/dock.prm

>  <Rbt.Receptor>
sah_rdock.prm

>  <SCORE>
-52.201

>  <SCORE.INTER>
-16.6934

>  <SCORE.INTER.CONST>
1

>  <SCORE.INTER.POLAR>
-0.848528

>  <SCORE.INTER.REPUL>
0

>  <SCORE.INTER.ROT>
5

>  <SCORE.INTER.VDW>
-24.2084

>  <SCORE.INTER.norm>
-0.575635

>  <SCORE.INTRA>
-33.7723

>  <SCORE.INTRA.DIHEDRAL>
-83.7022

>  <SCORE.INTRA.DIHEDRAL.0>
98.4563

>  <SCORE.INTRA.POLAR>
0

>  <SCORE.INTRA.POLAR.0>
0

>  <SCORE.INTRA.REPUL>
0

>  <SCORE.INTRA.REPUL.0>
0

>  <SCORE.INTRA.VDW>
8.07881

>  <SCORE.INTRA.VDW.0>
-1.92757

>  <SCORE.INTRA.norm>
-1.16456

>  <SCORE.RESTR>
0

>  <SCORE.RESTR.CAVITY>
0

>  <SCORE.RESTR.norm>
0

>  <SCORE.SYSTEM>
-1.73526

>  <SCORE.SYSTEM.CONST>
0

>  <SCORE.SYSTEM.DIHEDRAL>
6.2497

>  <SCORE.SYSTEM.POLAR>
-4.11717

>  <SCORE.SYSTEM.VDW>
9.13827

>  <SCORE.SYSTEM.norm>
-0.0598364

>  <SCORE.heavy>
29

>  <SCORE.norm>
-1.80003

$$$$
F2272-0171
  rDOCK(R)          3D
libRbt.so/2013.1/901 2013/11/27
 29 32  0  0  0  0  0  0  0  0999 V2000
  -23.7796   16.4696  -13.3948 C   0  0  0  0  0  0
  -23.0443   17.1523  -12.2603 C   0  0  0  0  0  0
  -22.7546   18.5179  -12.5863 O   0  0  0  0  0  0
  -22.0868   19.2168  -11.6390 C   0  0  0  0  0  0
  -21.6653   18.8196  -10.5664 O   0  0  0  0  0  0
  -22.1114   20.6841  -12.0292 C   0  0  0  0  0  0
  -23.0898   21.3707  -11.5302 N   0  0  0  0  0  0
  -23.1786   22.7057  -11.8350 N   0  3  0  0  0  0
  -22.2513   23.3624  -12.6474 C   0  0  0  0  0  0
  -22.2476   24.5521  -12.9596 O   0  0  0  0  0  0
  -21.1394   22.5287  -13.1595 C   0  0  0  0  0  0
  -21.0357   21.2198  -12.9091 C   0  0  0  0  0  0
  -20.0255   20.3987  -13.3857 N   0  0  0  0  0  0
  -19.8113   19.0394  -12.8759 C   0  0  0  0  0  0
  -19.7318   18.0736  -14.0599 C   0  0  0  0  0  0
  -18.7401   18.5481  -15.0951 C   0  0  0  0  0  0
  -18.3739   19.9071  -15.1599 C   0  0  0  0  0  0
  -18.9143   20.9285  -14.1854 C   0  0  0  0  0  0
  -17.4563   20.3245  -16.1358 C   0  0  0  0  0  0
  -16.9344   19.4144  -17.0530 C   0  0  0  0  0  0
  -17.3241   18.0783  -17.0066 C   0  0  0  0  0  0
  -18.2259   17.6456  -16.0349 C   0  0  0  0  0  0
  -24.3726   23.3248  -11.3364 C   0  0  0  0  0  0
  -24.5535   23.6361   -9.9646 C   0  0  0  0  0  0
  -23.4675   23.5084   -8.9267 C   0  0  0  0  0  0
  -25.8018   24.1144   -9.5216 C   0  0  0  0  0  0
  -26.8501   24.3227  -10.4130 C   0  0  0  0  0  0
  -26.6664   24.0596  -11.7633 C   0  0  0  0  0  0
  -25.4402   23.5698  -12.2195 C   0  0  0  0  0  0
  1  2  1  0  0  0
  2  3  1  0  0  0
  3  4  1  0  0  0
  4  5  2  0  0  0
  4  6  1  0  0  0
  6  7  2  0  0  0
  6 12  1  0  0  0
  7  8  1  0  0  0
  8  9  1  0  0  0
  8 23  1  0  0  0
  9 10  2  0  0  0
  9 11  1  0  0  0
 11 12  2  0  0  0
 12 13  1  0  0  0
 13 14  1  0  0  0
 13 18  1  0  0  0
 14 15  1  0  0  0
 15 16  1  0  0  0
 16 17  2  0  0  0
 16 22  1  0  0  0
 17 18  1  0  0  0
 17 19  1  0  0  0
 19 20  2  0  0  0
 20 21  1  0  0  0
 21 22  2  0  0  0
 23 24  2  0  0  0
 23 29  1  0  0  0
 24 25  1  0  0  0
 24 26  1  0  0  0
 26 27  2  0  0  0
 27 28  1  0  0  0
 28 29  2  0  0  0
M  END
>  <CHROM.0>
-61.90192511,-167.95703169,-9.28353527,63.06718626,-31.43691851,-57.79938234
40.62055496,-162.31144474

>  <CHROM.1>
-179.48883903,2.59369077,92.54809109,74.57280962,-11.16983168,-21.78071283
20.83986681,-12.81978885,0.54373527,-0.62500512,3.13445505

>  <Name>
F2272-0171

>  <RI>
3.72268e+07

>  <Rbt.Current_Directory>
/home/adria/Escritorio/rDock_CMTR_LC/2pxcA_model/inputs_sah

>  <Rbt.Executable>
rbdock ($Id: //depot/dev/client3/rdock/2013.1/src/exe/rbdock.cxx#4 $)

>  <Rbt.Library>
libRbt.so (2013.1, Build901 2013/11/27)

>  <Rbt.Parameter_File>
/home/adria/Escritorio/rDock_2013.1_src/data/scripts/dock.prm

>  <Rbt.Receptor>
sah_rdock.prm

>  <SCORE>
-54.9894

>  <SCORE.INTER>
-12.7703

>  <SCORE.INTER.CONST>
1

>  <SCORE.INTER.POLAR>
-0.530803

>  <SCORE.INTER.REPUL>
0.0122437

>  <SCORE.INTER.ROT>
5

>  <SCORE.INTER.VDW>
-21.4268

>  <SCORE.INTER.norm>
-0.440356

>  <SCORE.INTRA>
-38.0161

>  <SCORE.INTRA.DIHEDRAL>
-84.1781

>  <SCORE.INTRA.DIHEDRAL.0>
98.4563

>  <SCORE.INTRA.POLAR>
0

>  <SCORE.INTRA.POLAR.0>
0

>  <SCORE.INTRA.REPUL>
0

>  <SCORE.INTRA.REPUL.0>
0

>  <SCORE.INTRA.VDW>
4.07297

>  <SCORE.INTRA.VDW.0>
-1.92757

>  <SCORE.INTRA.norm>
-1.3109

>  <SCORE.RESTR>
0

>  <SCORE.RESTR.CAVITY>
0

>  <SCORE.RESTR.norm>
0

>  <SCORE.SYSTEM>
-4.20302

>  <SCORE.SYSTEM.CONST>
0

>  <SCORE.SYSTEM.DIHEDRAL>
8.78395

>  <SCORE.SYSTEM.POLAR>
-3.61507

>  <SCORE.SYSTEM.VDW>
3.69624

>  <SCORE.SYSTEM.norm>
-0.144932

>  <SCORE.heavy>
29

>  <SCORE.norm>
-1.89619

$$$$
F2272-0171
  rDOCK(R)          3D
libRbt.so/2013.1/901 2013/11/27
 29 32  0  0  0  0  0  0  0  0999 V2000
  -14.0826   19.3045  -16.5420 C   0  0  0  0  0  0
  -15.3791   20.0524  -16.7738 C   0  0  0  0  0  0
  -16.4927   19.3241  -16.2403 O   0  0  0  0  0  0
  -17.7067   19.6718  -16.7272 C   0  0  0  0  0  0
  -17.9763   20.5640  -17.5127 O   0  0  0  0  0  0
  -18.7623   18.8864  -15.9691 C   0  0  0  0  0  0
  -19.4228   19.5631  -15.0838 N   0  0  0  0  0  0
  -20.3964   18.9229  -14.3590 N   0  3  0  0  0  0
  -20.7189   17.5764  -14.5439 C   0  0  0  0  0  0
  -21.5810   16.9303  -13.9505 O   0  0  0  0  0  0
  -19.9498   16.8681  -15.5929 C   0  0  0  0  0  0
  -18.9744   17.4494  -16.2982 C   0  0  0  0  0  0
  -18.2156   16.8186  -17.2720 N   0  0  0  0  0  0
  -17.3852   17.5628  -18.2259 C   0  0  0  0  0  0
  -15.9741   16.9717  -18.2199 C   0  0  0  0  0  0
  -16.0012   15.4733  -18.4058 C   0  0  0  0  0  0
  -17.1651   14.7393  -18.1027 C   0  0  0  0  0  0
  -18.4329   15.4107  -17.6267 C   0  0  0  0  0  0
  -17.1627   13.3471  -18.2765 C   0  0  0  0  0  0
  -16.0144   12.6896  -18.7138 C   0  0  0  0  0  0
  -14.8559   13.4148  -18.9806 C   0  0  0  0  0  0
  -14.8461   14.8005  -18.8244 C   0  0  0  0  0  0
  -20.9615   19.7371  -13.3221 C   0  0  0  0  0  0
  -22.3507   20.0103  -13.2398 C   0  0  0  0  0  0
  -23.3867   19.3521  -14.1152 C   0  0  0  0  0  0
  -22.8206   20.9280  -12.2805 C   0  0  0  0  0  0
  -21.9497   21.5437  -11.3866 C   0  0  0  0  0  0
  -20.5942   21.2491  -11.4345 C   0  0  0  0  0  0
  -20.1070   20.3530  -12.3892 C   0  0  0  0  0  0
  1  2  1  0  0  0
  2  3  1  0  0  0
  3  4  1  0  0  0
  4  5  2  0  0  0
  4  6  1  0  0  0
  6  7  2  0  0  0
  6 12  1  0  0  0
  7  8  1  0  0  0
  8  9  1  0  0  0
  8 23  1  0  0  0
  9 10  2  0  0  0
  9 11  1  0  0  0
 11 12  2  0  0  0
 12 13  1  0  0  0
 13 14  1  0  0  0
 13 18  1  0  0  0
 14 15  1  0  0  0
 15 16  1  0  0  0
 16 17  2  0  0  0
 16 22  1  0  0  0
 17 18  1  0  0  0
 17 19  1  0  0  0
 19 20  2  0  0  0
 20 21  1  0  0  0
 21 22  2  0  0  0
 23 24  2  0  0  0
 23 29  1  0  0  0
 24 25  1  0  0  0
 24 26  1  0  0  0
 26 27  2  0  0  0
 27 28  1  0  0  0
 28 29  2  0  0  0
M  END
>  <CHROM.0>
-177.99410736,-70.69786256,-45.51947846,-61.61036054,-30.99518342,65.76506314
82.34353065,-161.97209892

>  <CHROM.1>
-160.79137479,-3.70792173,104.36275691,123.09289805,-13.65754228,-18.58923639
17.95156363,-15.88881232,-0.80823477,0.49816143,0.40070260

>  <Name>
F2272-0171

>  <RI>
3.72268e+07

>  <Rbt.Current_Directory>
/home/adria/Escritorio/rDock_CMTR_LC/2pxcA_model/inputs_sah

>  <Rbt.Executable>
rbdock ($Id: //depot/dev/client3/rdock/2013.1/src/exe/rbdock.cxx#4 $)

>  <Rbt.Library>
libRbt.so (2013.1, Build901 2013/11/27)

>  <Rbt.Parameter_File>
/home/adria/Escritorio/rDock_2013.1_src/data/scripts/dock.prm

>  <Rbt.Receptor>
sah_rdock.prm

>  <SCORE>
-55.1015

>  <SCORE.INTER>
-11.5976

>  <SCORE.INTER.CONST>
1

>  <SCORE.INTER.POLAR>
-0.833675

>  <SCORE.INTER.REPUL>
0

>  <SCORE.INTER.ROT>
5

>  <SCORE.INTER.VDW>
-19.1631

>  <SCORE.INTER.norm>
-0.399918

>  <SCORE.INTRA>
-36.7223

>  <SCORE.INTRA.DIHEDRAL>
-83.0151

>  <SCORE.INTRA.DIHEDRAL.0>
98.4563

>  <SCORE.INTRA.POLAR>
0

>  <SCORE.INTRA.POLAR.0>
0

>  <SCORE.INTRA.REPUL>
0

>  <SCORE.INTRA.REPUL.0>
0

>  <SCORE.INTRA.VDW>
4.78522

>  <SCORE.INTRA.VDW.0>
-1.92757

>  <SCORE.INTRA.norm>
-1.26629

>  <SCORE.RESTR>
0

>  <SCORE.RESTR.CAVITY>
0

>  <SCORE.RESTR.norm>
0

>  <SCORE.SYSTEM>
-6.78151

>  <SCORE.SYSTEM.CONST>
0

>  <SCORE.SYSTEM.DIHEDRAL>
6.1274

>  <SCORE.SYSTEM.POLAR>
-3.90484

>  <SCORE.SYSTEM.REPUL>
0.0341679

>  <SCORE.SYSTEM.VDW>
3.26042

>  <SCORE.SYSTEM.norm>
-0.233845

>  <SCORE.heavy>
29

>  <SCORE.norm>
-1.90005

$$$$
F2272-0171
  rDOCK(R)          3D
libRbt.so/2013.1/901 2013/11/27
 29 32  0  0  0  0  0  0  0  0999 V2000
  -25.0737   17.5183  -15.5059 C   0  0  0  0  0  0
  -23.7189   16.8944  -15.7687 C   0  0  0  0  0  0
  -22.7032   17.5229  -14.9759 O   0  0  0  0  0  0
  -22.3959   18.7952  -15.3202 C   0  0  0  0  0  0
  -22.9250   19.4960  -16.1657 O   0  0  0  0  0  0
  -21.1090   19.1787  -14.6112 C   0  0  0  0  0  0
  -20.0266   19.0037  -15.3008 N   0  0  0  0  0  0
  -18.8227   19.3301  -14.7288 N   0  3  0  0  0  0
  -18.7125   19.8581  -13.4403 C   0  0  0  0  0  0
  -17.6808   20.1888  -12.8581 O   0  0  0  0  0  0
  -19.9887   20.0640  -12.7174 C   0  0  0  0  0  0
  -21.1776   19.7307  -13.2296 C   0  0  0  0  0  0
  -22.3925   19.8852  -12.5800 N   0  0  0  0  0  0
  -23.6779   19.7580  -13.2765 C   0  0  0  0  0  0
  -24.5685   18.7875  -12.4982 C   0  0  0  0  0  0
  -24.6500   19.1618  -11.0375 C   0  0  0  0  0  0
  -23.6457   19.9556  -10.4489 C   0  0  0  0  0  0
  -22.4824   20.4964  -11.2483 C   0  0  0  0  0  0
  -23.7401   20.2834   -9.0880 C   0  0  0  0  0  0
  -24.7969   19.8051   -8.3156 C   0  0  0  0  0  0
  -25.7699   18.9935   -8.8934 C   0  0  0  0  0  0
  -25.6966   18.6690  -10.2476 C   0  0  0  0  0  0
  -17.6930   18.9674  -15.5349 C   0  0  0  0  0  0
  -17.4516   17.6335  -15.9519 C   0  0  0  0  0  0
  -18.4245   16.5013  -15.7412 C   0  0  0  0  0  0
  -16.2528   17.3237  -16.6229 C   0  0  0  0  0  0
  -15.3172   18.3109  -16.9173 C   0  0  0  0  0  0
  -15.5664   19.6256  -16.5488 C   0  0  0  0  0  0
  -16.7429   19.9499  -15.8687 C   0  0  0  0  0  0
  1  2  1  0  0  0
  2  3  1  0  0  0
  3  4  1  0  0  0
  4  5  2  0  0  0
  4  6  1  0  0  0
  6  7  2  0  0  0
  6 12  1  0  0  0
  7  8  1  0  0  0
  8  9  1  0  0  0
  8 23  1  0  0  0
  9 10  2  0  0  0
  9 11  1  0  0  0
 11 12  2  0  0  0
 12 13  1  0  0  0
 13 14  1  0  0  0
 13 18  1  0  0  0
 14 15  1  0  0  0
 15 16  1  0  0  0
 16 17  2  0  0  0
 16 22  1  0  0  0
 17 18  1  0  0  0
 17 19  1  0  0  0
 19 20  2  0  0  0
 20 21  1  0  0  0
 21 22  2  0  0  0
 23 24  2  0  0  0
 23 29  1  0  0  0
 24 25  1  0  0  0
 24 26  1  0  0  0
 26 27  2  0  0  0
 27 28  1  0  0  0
 28 29  2  0  0  0
M  END
>  <CHROM.0>
178.65745345,-72.94265450,74.88137122,-62.04706418,-29.89112962,-179.84081827
83.95073595,-165.02491692

>  <CHROM.1>
-69.53985631,4.61357704,94.38766451,-58.03307290,-11.53540107,-21.17623035
19.00361569,-13.67870986,2.56632163,0.19184719,1.15417101

>  <Name>
F2272-0171

>  <RI>
3.72268e+07

>  <Rbt.Current_Directory>
/home/adria/Escritorio/rDock_CMTR_LC/2pxcA_model/inputs_sah

>  <Rbt.Executable>
rbdock ($Id: //depot/dev/client3/rdock/2013.1/src/exe/rbdock.cxx#4 $)

>  <Rbt.Library>
libRbt.so (2013.1, Build901 2013/11/27)

>  <Rbt.Parameter_File>
/home/adria/Escritorio/rDock_2013.1_src/data/scripts/dock.prm

>  <Rbt.Receptor>
sah_rdock.prm

>  <SCORE>
-49.4372

>  <SCORE.INTER>
-6.11749

>  <SCORE.INTER.CONST>
1

>  <SCORE.INTER.POLAR>
0

>  <SCORE.INTER.REPUL>
0

>  <SCORE.INTER.ROT>
5

>  <SCORE.INTER.VDW>
-16.5175

>  <SCORE.INTER.norm>
-0.210948

>  <SCORE.INTRA>
-36.2034

>  <SCORE.INTRA.DIHEDRAL>
-83.5172

>  <SCORE.INTRA.DIHEDRAL.0>
98.4563

>  <SCORE.INTRA.POLAR>
0

>  <SCORE.INTRA.POLAR.0>
0

>  <SCORE.INTRA.REPUL>
0

>  <SCORE.INTRA.REPUL.0>
0

>  <SCORE.INTRA.VDW>
5.55521

>  <SCORE.INTRA.VDW.0>
-1.92757

>  <SCORE.INTRA.norm>
-1.24839

>  <SCORE.RESTR>
0.0122767

>  <SCORE.RESTR.CAVITY>
0.0122767

>  <SCORE.RESTR.norm>
0.000423334

>  <SCORE.SYSTEM>
-7.12863

>  <SCORE.SYSTEM.CONST>
0

>  <SCORE.SYSTEM.DIHEDRAL>
6.52476

>  <SCORE.SYSTEM.POLAR>
-4.04254

>  <SCORE.SYSTEM.REPUL>
0.038433

>  <SCORE.SYSTEM.VDW>
3.16147

>  <SCORE.SYSTEM.norm>
-0.245815

>  <SCORE.heavy>
29

>  <SCORE.norm>
-1.70473

$$$$
F2272-0171
  rDOCK(R)          3D
libRbt.so/2013.1/901 2013/11/27
 29 32  0  0  0  0  0  0  0  0999 V2000
  -23.8402   16.3714  -12.2474 C   0  0  0  0  0  0
  -23.8284   17.7026  -12.9696 C   0  0  0  0  0  0
  -22.4854   18.1447  -13.2064 O   0  0  0  0  0  0
  -21.7942   18.5305  -12.1086 C   0  0  0  0  0  0
  -21.5073   17.8672  -11.1270 O   0  0  0  0  0  0
  -21.5874   20.0330  -12.1844 C   0  0  0  0  0  0
  -22.4699   20.7431  -11.5562 N   0  0  0  0  0  0
  -22.3490   22.1099  -11.5762 N   0  3  0  0  0  0
  -21.3071   22.7706  -12.2312 C   0  0  0  0  0  0
  -21.1161   23.9843  -12.2884 O   0  0  0  0  0  0
  -20.3140   21.9006  -12.9024 C   0  0  0  0  0  0
  -20.4143   20.5680  -12.9301 C   0  0  0  0  0  0
  -19.5212   19.7184  -13.5644 N   0  0  0  0  0  0
  -19.5863   18.2595  -13.4197 C   0  0  0  0  0  0
  -19.5701   17.6230  -14.8109 C   0  0  0  0  0  0
  -18.4264   18.1474  -15.6459 C   0  0  0  0  0  0
  -17.8301   19.3864  -15.3385 C   0  0  0  0  0  0
  -18.2710   20.2142  -14.1530 C   0  0  0  0  0  0
  -16.7740   19.8556  -16.1340 C   0  0  0  0  0  0
  -16.3372   19.1227  -17.2359 C   0  0  0  0  0  0
  -16.9511   17.9144  -17.5561 C   0  0  0  0  0  0
  -17.9939   17.4288  -16.7678 C   0  0  0  0  0  0
  -23.4546   22.7877  -10.9631 C   0  0  0  0  0  0
  -24.4342   23.4834  -11.7165 C   0  0  0  0  0  0
  -24.5150   23.4468  -13.2215 C   0  0  0  0  0  0
  -25.4133   24.2424  -11.0466 C   0  0  0  0  0  0
  -25.4591   24.2914   -9.6565 C   0  0  0  0  0  0
  -24.5287   23.5791   -8.9127 C   0  0  0  0  0  0
  -23.5403   22.8329   -9.5594 C   0  0  0  0  0  0
  1  2  1  0  0  0
  2  3  1  0  0  0
  3  4  1  0  0  0
  4  5  2  0  0  0
  4  6  1  0  0  0
  6  7  2  0  0  0
  6 12  1  0  0  0
  7  8  1  0  0  0
  8  9  1  0  0  0
  8 23  1  0  0  0
  9 10  2  0  0  0
  9 11  1  0  0  0
 11 12  2  0  0  0
 12 13  1  0  0  0
 13 14  1  0  0  0
 13 18  1  0  0  0
 14 15  1  0  0  0
 15 16  1  0  0  0
 16 17  2  0  0  0
 16 22  1  0  0  0
 17 18  1  0  0  0
 17 19  1  0  0  0
 19 20  2  0  0  0
 20 21  1  0  0  0
 21 22  2  0  0  0
 23 24  2  0  0  0
 23 29  1  0  0  0
 24 25  1  0  0  0
 24 26  1  0  0  0
 26 27  2  0  0  0
 27 28  1  0  0  0
 28 29  2  0  0  0
M  END
>  <CHROM.0>
-177.32604076,-168.43341388,110.00201368,64.46563532,-29.85827554,-176.42401854
75.72231365,-163.04917223

>  <CHROM.1>
-70.09862634,60.61711990,94.62206771,-106.70338643,-6.92288590,-21.26339069
20.41131071,-12.98519757,2.52968306,0.62006449,0.13027537

>  <Name>
F2272-0171

>  <RI>
3.72268e+07

>  <Rbt.Current_Directory>
/home/adria/Escritorio/rDock_CMTR_LC/2pxcA_model/inputs_sah

>  <Rbt.Executable>
rbdock ($Id: //depot/dev/client3/rdock/2013.1/src/exe/rbdock.cxx#4 $)

>  <Rbt.Library>
libRbt.so (2013.1, Build901 2013/11/27)

>  <Rbt.Parameter_File>
/home/adria/Escritorio/rDock_2013.1_src/data/scripts/dock.prm

>  <Rbt.Receptor>
sah_rdock.prm

>  <SCORE>
-45.0888

>  <SCORE.INTER>
-11.6643

>  <SCORE.INTER.CONST>
1

>  <SCORE.INTER.POLAR>
-0.434695

>  <SCORE.INTER.REPUL>
0.0323193

>  <SCORE.INTER.ROT>
5

>  <SCORE.INTER.VDW>
-20.7479

>  <SCORE.INTER.norm>
-0.402216

>  <SCORE.INTRA>
-28.027

>  <SCORE.INTRA.DIHEDRAL>
-65.8141

>  <SCORE.INTRA.DIHEDRAL.0>
98.4563

>  <SCORE.INTRA.POLAR>
0

>  <SCORE.INTRA.POLAR.0>
0

>  <SCORE.INTRA.REPUL>
0

>  <SCORE.INTRA.REPUL.0>
0

>  <SCORE.INTRA.VDW>
4.88005

>  <SCORE.INTRA.VDW.0>
-1.92757

>  <SCORE.INTRA.norm>
-0.966449

>  <SCORE.RESTR>
0.00785435

>  <SCORE.RESTR.CAVITY>
0.00785435

>  <SCORE.RESTR.norm>
0.00027084

>  <SCORE.SYSTEM>
-5.4054

>  <SCORE.SYSTEM.CONST>
0

>  <SCORE.SYSTEM.DIHEDRAL>
8.7752

>  <SCORE.SYSTEM.POLAR>
-4.02145

>  <SCORE.SYSTEM.VDW>
3.87992

>  <SCORE.SYSTEM.norm>
-0.186393

>  <SCORE.heavy>
29

>  <SCORE.norm>
-1.55479

$$$$
F2272-0171
  rDOCK(R)          3D
libRbt.so/2013.1/901 2013/11/27
 29 32  0  0  0  0  0  0  0  0999 V2000
  -24.2191   17.5578  -11.8319 C   0  0  0  0  0  0
  -24.0327   18.9897  -11.3751 C   0  0  0  0  0  0
  -22.8499   19.5606  -11.9499 O   0  0  0  0  0  0
  -22.9319   19.8783  -13.2629 C   0  0  0  0  0  0
  -23.9026   19.8058  -13.9966 O   0  0  0  0  0  0
  -21.5287   20.1629  -13.7687 C   0  0  0  0  0  0
  -20.9739   19.1960  -14.4283 N   0  0  0  0  0  0
  -19.7060   19.3785  -14.9203 N   0  3  0  0  0  0
  -18.9913   20.5672  -14.7554 C   0  0  0  0  0  0
  -17.8619   20.8195  -15.1721 O   0  0  0  0  0  0
  -19.6937   21.6443  -14.0204 C   0  0  0  0  0  0
  -20.9160   21.4938  -13.5009 C   0  0  0  0  0  0
  -21.6001   22.4663  -12.7879 N   0  0  0  0  0  0
  -23.0198   22.3337  -12.4410 C   0  0  0  0  0  0
  -23.1896   22.5944  -10.9430 C   0  0  0  0  0  0
  -22.5330   23.8898  -10.5291 C   0  0  0  0  0  0
  -21.5087   24.4521  -11.3164 C   0  0  0  0  0  0
  -21.0567   23.8187  -12.6123 C   0  0  0  0  0  0
  -20.9090   25.6524  -10.9064 C   0  0  0  0  0  0
  -21.2970   26.2686   -9.7182 C   0  0  0  0  0  0
  -22.2867   25.6922   -8.9260 C   0  0  0  0  0  0
  -22.9008   24.5059   -9.3261 C   0  0  0  0  0  0
  -19.1499   18.1961  -15.5121 C   0  0  0  0  0  0
  -18.6562   18.1694  -16.8414 C   0  0  0  0  0  0
  -18.5090   19.3966  -17.7047 C   0  0  0  0  0  0
  -18.2526   16.9440  -17.4060 C   0  0  0  0  0  0
  -18.2944   15.7640  -16.6695 C   0  0  0  0  0  0
  -18.7371   15.7901  -15.3543 C   0  0  0  0  0  0
  -19.1564   16.9935  -14.7817 C   0  0  0  0  0  0
  1  2  1  0  0  0
  2  3  1  0  0  0
  3  4  1  0  0  0
  4  5  2  0  0  0
  4  6  1  0  0  0
  6  7  2  0  0  0
  6 12  1  0  0  0
  7  8  1  0  0  0
  8  9  1  0  0  0
  8 23  1  0  0  0
  9 10  2  0  0  0
  9 11  1  0  0  0
 11 12  2  0  0  0
 12 13  1  0  0  0
 13 14  1  0  0  0
 13 18  1  0  0  0
 14 15  1  0  0  0
 15 16  1  0  0  0
 16 17  2  0  0  0
 16 22  1  0  0  0
 17 18  1  0  0  0
 17 19  1  0  0  0
 19 20  2  0  0  0
 20 21  1  0  0  0
 21 22  2  0  0  0
 23 24  2  0  0  0
 23 29  1  0  0  0
 24 25  1  0  0  0
 24 26  1  0  0  0
 26 27  2  0  0  0
 27 28  1  0  0  0
 28 29  2  0  0  0
M  END
>  <CHROM.0>
41.69422864,67.67000341,74.29279227,63.50837804,167.74222609,-176.37495888
-156.68807641,-162.17963378

>  <CHROM.1>
73.97774991,4.24337609,100.75218477,124.82348712,-9.79443912,-21.02659204
20.72553289,-13.34251438,1.12030054,-0.60319433,-2.71181250

>  <Name>
F2272-0171

>  <RI>
3.72268e+07

>  <Rbt.Current_Directory>
/home/adria/Escritorio/rDock_CMTR_LC/2pxcA_model/inputs_sah

>  <Rbt.Executable>
rbdock ($Id: //depot/dev/client3/rdock/2013.1/src/exe/rbdock.cxx#4 $)

>  <Rbt.Library>
libRbt.so (2013.1, Build901 2013/11/27)

>  <Rbt.Parameter_File>
/home/adria/Escritorio/rDock_2013.1_src/data/scripts/dock.prm

>  <Rbt.Receptor>
sah_rdock.prm

>  <SCORE>
-44.9302

>  <SCORE.INTER>
-10.5658

>  <SCORE.INTER.CONST>
1

>  <SCORE.INTER.POLAR>
0

>  <SCORE.INTER.REPUL>
0

>  <SCORE.INTER.ROT>
5

>  <SCORE.INTER.VDW>
-20.9658

>  <SCORE.INTER.norm>
-0.364337

>  <SCORE.INTRA>
-36.1174

>  <SCORE.INTRA.DIHEDRAL>
-83.9225

>  <SCORE.INTRA.DIHEDRAL.0>
98.4563

>  <SCORE.INTRA.POLAR>
0

>  <SCORE.INTRA.POLAR.0>
0

>  <SCORE.INTRA.REPUL>
0

>  <SCORE.INTRA.REPUL.0>
0

>  <SCORE.INTRA.VDW>
5.84387

>  <SCORE.INTRA.VDW.0>
-1.92757

>  <SCORE.INTRA.norm>
-1.24543

>  <SCORE.RESTR>
0

>  <SCORE.RESTR.CAVITY>
0

>  <SCORE.RESTR.norm>
0

>  <SCORE.SYSTEM>
1.75297

>  <SCORE.SYSTEM.CONST>
0

>  <SCORE.SYSTEM.DIHEDRAL>
4.7399

>  <SCORE.SYSTEM.POLAR>
-3.66572

>  <SCORE.SYSTEM.REPUL>
0.117314

>  <SCORE.SYSTEM.VDW>
11.2599

>  <SCORE.SYSTEM.norm>
0.0604473

>  <SCORE.heavy>
29

>  <SCORE.norm>
-1.54932

$$$$
F2272-0171
  rDOCK(R)          3D
libRbt.so/2013.1/901 2013/11/27
 29 32  0  0  0  0  0  0  0  0999 V2000
  -17.0370   12.2722  -16.5530 C   0  0  0  0  0  0
  -18.0186   12.5744  -15.4400 C   0  0  0  0  0  0
  -18.1078   13.9859  -15.2053 O   0  0  0  0  0  0
  -18.8634   14.6794  -16.0884 C   0  0  0  0  0  0
  -19.3444   14.2892  -17.1383 O   0  0  0  0  0  0
  -18.8624   16.1384  -15.6675 C   0  0  0  0  0  0
  -19.6918   16.4389  -14.7190 N   0  0  0  0  0  0
  -19.7472   17.7384  -14.2815 N   0  3  0  0  0  0
  -18.9374   18.7503  -14.8027 C   0  0  0  0  0  0
  -18.9126   19.9319  -14.4623 O   0  0  0  0  0  0
  -17.9887   18.3348  -15.8615 C   0  0  0  0  0  0
  -17.9265   17.0860  -16.3341 C   0  0  0  0  0  0
  -17.0707   16.6596  -17.3380 N   0  0  0  0  0  0
  -15.9123   17.4495  -17.7714 C   0  0  0  0  0  0
  -14.6723   16.5533  -17.7658 C   0  0  0  0  0  0
  -14.9126   15.2718  -18.5277 C   0  0  0  0  0  0
  -16.2246   14.8015  -18.7340 C   0  0  0  0  0  0
  -17.4343   15.5668  -18.2483 C   0  0  0  0  0  0
  -16.4213   13.6042  -19.4383 C   0  0  0  0  0  0
  -15.3328   12.8686  -19.9031 C   0  0  0  0  0  0
  -14.0364   13.3197  -19.6684 C   0  0  0  0  0  0
  -13.8249   14.5142  -18.9806 C   0  0  0  0  0  0
  -20.7926   17.9734  -13.3280 C   0  0  0  0  0  0
  -22.1663   17.9348  -13.6786 C   0  0  0  0  0  0
  -22.6745   17.4860  -15.0251 C   0  0  0  0  0  0
  -23.1348   18.3109  -12.7278 C   0  0  0  0  0  0
  -22.7697   18.6840  -11.4377 C   0  0  0  0  0  0
  -21.4298   18.6837  -11.0755 C   0  0  0  0  0  0
  -20.4533   18.3287  -12.0095 C   0  0  0  0  0  0
  1  2  1  0  0  0
  2  3  1  0  0  0
  3  4  1  0  0  0
  4  5  2  0  0  0
  4  6  1  0  0  0
  6  7  2  0  0  0
  6 12  1  0  0  0
  7  8  1  0  0  0
  8  9  1  0  0  0
  8 23  1  0  0  0
  9 10  2  0  0  0
  9 11  1  0  0  0
 11 12  2  0  0  0
 12 13  1  0  0  0
 13 14  1  0  0  0
 13 18  1  0  0  0
 14 15  1  0  0  0
 15 16  1  0  0  0
 16 17  2  0  0  0
 16 22  1  0  0  0
 17 18  1  0  0  0
 17 19  1  0  0  0
 19 20  2  0  0  0
 20 21  1  0  0  0
 21 22  2  0  0  0
 23 24  2  0  0  0
 23 29  1  0  0  0
 24 25  1  0  0  0
 24 26  1  0  0  0
 26 27  2  0  0  0
 27 28  1  0  0  0
 28 29  2  0  0  0
M  END
>  <CHROM.0>
-61.82360911,-72.90903448,-9.18693529,64.40542622,-32.00559293,62.75090705
-157.14273030,-162.87900343

>  <CHROM.1>
78.36829904,-9.51214479,-81.04874870,-68.92642260,-163.69293793,-18.37385284
16.18864954,-15.94036989,0.62077426,-0.65486521,-2.90911480

>  <Name>
F2272-0171

>  <RI>
3.72268e+07

>  <Rbt.Current_Directory>
/home/adria/Escritorio/rDock_CMTR_LC/2pxcA_model/inputs_sah

>  <Rbt.Executable>
rbdock ($Id: //depot/dev/client3/rdock/2013.1/src/exe/rbdock.cxx#4 $)

>  <Rbt.Library>
libRbt.so (2013.1, Build901 2013/11/27)

>  <Rbt.Parameter_File>
/home/adria/Escritorio/rDock_2013.1_src/data/scripts/dock.prm

>  <Rbt.Receptor>
sah_rdock.prm

>  <SCORE>
-48.6195

>  <SCORE.INTER>
-10.2816

>  <SCORE.INTER.CONST>
1

>  <SCORE.INTER.POLAR>
0

>  <SCORE.INTER.REPUL>
0

>  <SCORE.INTER.ROT>
5

>  <SCORE.INTER.VDW>
-20.6816

>  <SCORE.INTER.norm>
-0.354538

>  <SCORE.INTRA>
-30.7384

>  <SCORE.INTRA.DIHEDRAL>
-69.1578

>  <SCORE.INTRA.DIHEDRAL.0>
98.4563

>  <SCORE.INTRA.POLAR>
0

>  <SCORE.INTRA.POLAR.0>
0

>  <SCORE.INTRA.REPUL>
0

>  <SCORE.INTRA.REPUL.0>
0

>  <SCORE.INTRA.VDW>
3.84052

>  <SCORE.INTRA.VDW.0>
-1.92757

>  <SCORE.INTRA.norm>
-1.05994

>  <SCORE.RESTR>
0

>  <SCORE.RESTR.CAVITY>
0

>  <SCORE.RESTR.norm>
0

>  <SCORE.SYSTEM>
-7.59952

>  <SCORE.SYSTEM.CONST>
0

>  <SCORE.SYSTEM.DIHEDRAL>
9.09887

>  <SCORE.SYSTEM.POLAR>
-4.64873

>  <SCORE.SYSTEM.REPUL>
0.0383727

>  <SCORE.SYSTEM.VDW>
3.46485

>  <SCORE.SYSTEM.norm>
-0.262052

>  <SCORE.heavy>
29

>  <SCORE.norm>
-1.67654

$$$$
F2272-0171
  rDOCK(R)          3D
libRbt.so/2013.1/901 2013/11/27
 29 32  0  0  0  0  0  0  0  0999 V2000
  -23.3057   16.7075  -12.9286 C   0  0  0  0  0  0
  -22.6927   17.5977  -11.8676 C   0  0  0  0  0  0
  -22.5081   18.9307  -12.3618 O   0  0  0  0  0  0
  -22.0212   19.8237  -11.4689 C   0  0  0  0  0  0
  -21.6478   19.6200  -10.3266 O   0  0  0  0  0  0
  -22.1997   21.2160  -12.0480 C   0  0  0  0  0  0
  -23.2141   21.8779  -11.5890 N   0  0  0  0  0  0
  -23.4403   23.1459  -12.0623 N   0  3  0  0  0  0
  -22.6159   23.7623  -13.0066 C   0  0  0  0  0  0
  -22.7369   24.8938  -13.4733 O   0  0  0  0  0  0
  -21.4557   22.9649  -13.4667 C   0  0  0  0  0  0
  -21.2195   21.7165  -13.0515 C   0  0  0  0  0  0
  -20.1600   20.9277  -13.4724 N   0  0  0  0  0  0
  -19.7239   19.7376  -12.7329 C   0  0  0  0  0  0
  -19.6304   18.5586  -13.7035 C   0  0  0  0  0  0
  -18.8101   18.9089  -14.9220 C   0  0  0  0  0  0
  -18.6316   20.2553  -15.2970 C   0  0  0  0  0  0
  -19.2069   21.3943  -14.4868 C   0  0  0  0  0  0
  -17.8716   20.5547  -16.4377 C   0  0  0  0  0  0
  -17.3237   19.5337  -17.2120 C   0  0  0  0  0  0
  -17.5300   18.2032  -16.8566 C   0  0  0  0  0  0
  -18.2729   17.8898  -15.7189 C   0  0  0  0  0  0
  -24.6628   23.7225  -11.5823 C   0  0  0  0  0  0
  -24.8746   24.0297  -10.2141 C   0  0  0  0  0  0
  -23.7997   23.9431   -9.1604 C   0  0  0  0  0  0
  -26.1455   24.4636   -9.7901 C   0  0  0  0  0  0
  -27.1876   24.6324  -10.6968 C   0  0  0  0  0  0
  -26.9753   24.3736  -12.0438 C   0  0  0  0  0  0
  -25.7257   23.9273  -12.4812 C   0  0  0  0  0  0
  1  2  1  0  0  0
  2  3  1  0  0  0
  3  4  1  0  0  0
  4  5  2  0  0  0
  4  6  1  0  0  0
  6  7  2  0  0  0
  6 12  1  0  0  0
  7  8  1  0  0  0
  8  9  1  0  0  0
  8 23  1  0  0  0
  9 10  2  0  0  0
  9 11  1  0  0  0
 11 12  2  0  0  0
 12 13  1  0  0  0
 13 14  1  0  0  0
 13 18  1  0  0  0
 14 15  1  0  0  0
 15 16  1  0  0  0
 16 17  2  0  0  0
 16 22  1  0  0  0
 17 18  1  0  0  0
 17 19  1  0  0  0
 19 20  2  0  0  0
 20 21  1  0  0  0
 21 22  2  0  0  0
 23 24  2  0  0  0
 23 29  1  0  0  0
 24 25  1  0  0  0
 24 26  1  0  0  0
 26 27  2  0  0  0
 27 28  1  0  0  0
 28 29  2  0  0  0
M  END
>  <CHROM.0>
179.86277486,-74.08523926,-165.32486625,62.77848982,-31.40216397,58.67693615
-156.78830812,-164.33328850

>  <CHROM.1>
177.09585569,4.74405124,100.50306188,65.50611914,-16.62354767,-21.92944657
21.25036386,-12.87663443,0.40255511,-0.69149217,2.86988575

>  <Name>
F2272-0171

>  <RI>
3.72268e+07

>  <Rbt.Current_Directory>
/home/adria/Escritorio/rDock_CMTR_LC/2pxcA_model/inputs_sah

>  <Rbt.Executable>
rbdock ($Id: //depot/dev/client3/rdock/2013.1/src/exe/rbdock.cxx#4 $)

>  <Rbt.Library>
libRbt.so (2013.1, Build901 2013/11/27)

>  <Rbt.Parameter_File>
/home/adria/Escritorio/rDock_2013.1_src/data/scripts/dock.prm

>  <Rbt.Receptor>
sah_rdock.prm

>  <SCORE>
-59.1505

>  <SCORE.INTER>
-14.279

>  <SCORE.INTER.CONST>
1

>  <SCORE.INTER.POLAR>
-0.88993

>  <SCORE.INTER.REPUL>
0

>  <SCORE.INTER.ROT>
5

>  <SCORE.INTER.VDW>
-21.6533

>  <SCORE.INTER.norm>
-0.49238

>  <SCORE.INTRA>
-37.5973

>  <SCORE.INTRA.DIHEDRAL>
-82.3315

>  <SCORE.INTRA.DIHEDRAL.0>
98.4563

>  <SCORE.INTRA.POLAR>
0

>  <SCORE.INTRA.POLAR.0>
0

>  <SCORE.INTRA.REPUL>
0

>  <SCORE.INTRA.REPUL.0>
0

>  <SCORE.INTRA.VDW>
3.5685

>  <SCORE.INTRA.VDW.0>
-1.92757

>  <SCORE.INTRA.norm>
-1.29646

>  <SCORE.RESTR>
0

>  <SCORE.RESTR.CAVITY>
0

>  <SCORE.RESTR.norm>
0

>  <SCORE.SYSTEM>
-7.27425

>  <SCORE.SYSTEM.CONST>
0

>  <SCORE.SYSTEM.DIHEDRAL>
6.34315

>  <SCORE.SYSTEM.POLAR>
-4.01243

>  <SCORE.SYSTEM.REPUL>
0.0404157

>  <SCORE.SYSTEM.VDW>
2.99436

>  <SCORE.SYSTEM.norm>
-0.250836

>  <SCORE.heavy>
29

>  <SCORE.norm>
-2.03967

$$$$
F2272-0171
  rDOCK(R)          3D
libRbt.so/2013.1/901 2013/11/27
 29 32  0  0  0  0  0  0  0  0999 V2000
  -23.8128   16.4034  -12.2122 C   0  0  0  0  0  0
  -23.6889   17.7106  -11.4572 C   0  0  0  0  0  0
  -22.8621   18.6383  -12.1721 O   0  0  0  0  0  0
  -21.5291   18.5006  -11.9826 C   0  0  0  0  0  0
  -20.9517   17.7906  -11.1774 O   0  0  0  0  0  0
  -20.8220   19.5534  -12.8178 C   0  0  0  0  0  0
  -20.1506   19.0968  -13.8270 N   0  0  0  0  0  0
  -19.4859   19.9878  -14.6316 N   0  3  0  0  0  0
  -19.5132   21.3683  -14.4204 C   0  0  0  0  0  0
  -18.9602   22.2347  -15.0960 O   0  0  0  0  0  0
  -20.3246   21.8279  -13.2697 C   0  0  0  0  0  0
  -20.9613   20.9890  -12.4465 C   0  0  0  0  0  0
  -21.7120   21.3744  -11.3466 N   0  0  0  0  0  0
  -21.9358   22.7832  -11.0023 C   0  0  0  0  0  0
  -23.4349   23.0106  -10.7980 C   0  0  0  0  0  0
  -24.0219   22.0016   -9.8400 C   0  0  0  0  0  0
  -23.3732   20.7710   -9.6164 C   0  0  0  0  0  0
  -22.0595   20.4270  -10.2804 C   0  0  0  0  0  0
  -23.9426   19.8470   -8.7274 C   0  0  0  0  0  0
  -25.1526   20.1257   -8.0945 C   0  0  0  0  0  0
  -25.8075   21.3291   -8.3436 C   0  0  0  0  0  0
  -25.2481   22.2629   -9.2152 C   0  0  0  0  0  0
  -18.6728   19.3556  -15.6299 C   0  0  0  0  0  0
  -19.1706   18.3421  -16.4880 C   0  0  0  0  0  0
  -20.6229   17.9438  -16.5590 C   0  0  0  0  0  0
  -18.2845   17.6672  -17.3498 C   0  0  0  0  0  0
  -16.9350   18.0031  -17.4011 C   0  0  0  0  0  0
  -16.4494   19.0226  -16.5941 C   0  0  0  0  0  0
  -17.3100   19.6932  -15.7214 C   0  0  0  0  0  0
  1  2  1  0  0  0
  2  3  1  0  0  0
  3  4  1  0  0  0
  4  5  2  0  0  0
  4  6  1  0  0  0
  6  7  2  0  0  0
  6 12  1  0  0  0
  7  8  1  0  0  0
  8  9  1  0  0  0
  8 23  1  0  0  0
  9 10  2  0  0  0
  9 11  1  0  0  0
 11 12  2  0  0  0
 12 13  1  0  0  0
 13 14  1  0  0  0
 13 18  1  0  0  0
 14 15  1  0  0  0
 15 16  1  0  0  0
 16 17  2  0  0  0
 16 22  1  0  0  0
 17 18  1  0  0  0
 17 19  1  0  0  0
 19 20  2  0  0  0
 20 21  1  0  0  0
 21 22  2  0  0  0
 23 24  2  0  0  0
 23 29  1  0  0  0
 24 25  1  0  0  0
 24 26  1  0  0  0
 26 27  2  0  0  0
 27 28  1  0  0  0
 28 29  2  0  0  0
M  END
>  <CHROM.0>
-64.53941883,-167.47789654,-47.49967517,-60.86266822,-30.60310303,178.41394989
-56.54863984,-163.96687818

>  <CHROM.1>
-83.73026773,-8.75571473,-110.76798716,50.52615359,-176.18634047,-21.29891978
19.90475842,-12.70867024,2.71461278,0.77901635,0.30832208

>  <Name>
F2272-0171

>  <RI>
3.72268e+07

>  <Rbt.Current_Directory>
/home/adria/Escritorio/rDock_CMTR_LC/2pxcA_model/inputs_sah

>  <Rbt.Executable>
rbdock ($Id: //depot/dev/client3/rdock/2013.1/src/exe/rbdock.cxx#4 $)

>  <Rbt.Library>
libRbt.so (2013.1, Build901 2013/11/27)

>  <Rbt.Parameter_File>
/home/adria/Escritorio/rDock_2013.1_src/data/scripts/dock.prm

>  <Rbt.Receptor>
sah_rdock.prm

>  <SCORE>
-53.2619

>  <SCORE.INTER>
-12.4826

>  <SCORE.INTER.CONST>
1

>  <SCORE.INTER.POLAR>
-0.820632

>  <SCORE.INTER.REPUL>
0

>  <SCORE.INTER.ROT>
5

>  <SCORE.INTER.VDW>
-20.0924

>  <SCORE.INTER.norm>
-0.430434

>  <SCORE.INTRA>
-35.5084

>  <SCORE.INTRA.DIHEDRAL>
-80.0282

>  <SCORE.INTRA.DIHEDRAL.0>
98.4563

>  <SCORE.INTRA.POLAR>
0

>  <SCORE.INTRA.POLAR.0>
0

>  <SCORE.INTRA.REPUL>
0

>  <SCORE.INTRA.REPUL.0>
0

>  <SCORE.INTRA.VDW>
4.50572

>  <SCORE.INTRA.VDW.0>
-1.92757

>  <SCORE.INTRA.norm>
-1.22443

>  <SCORE.RESTR>
0

>  <SCORE.RESTR.CAVITY>
0

>  <SCORE.RESTR.norm>
0

>  <SCORE.SYSTEM>
-5.2709

>  <SCORE.SYSTEM.CONST>
0

>  <SCORE.SYSTEM.DIHEDRAL>
5.1119

>  <SCORE.SYSTEM.POLAR>
-3.14768

>  <SCORE.SYSTEM.VDW>
2.87527

>  <SCORE.SYSTEM.norm>
-0.181755

>  <SCORE.heavy>
29

>  <SCORE.norm>
-1.83662

$$$$
F2272-0171
  rDOCK(R)          3D
libRbt.so/2013.1/901 2013/11/27
 29 32  0  0  0  0  0  0  0  0999 V2000
  -23.9779   16.4305  -12.3605 C   0  0  0  0  0  0
  -22.8076   16.7736  -13.2586 C   0  0  0  0  0  0
  -22.4689   18.1624  -13.1501 O   0  0  0  0  0  0
  -21.7778   18.5113  -12.0400 C   0  0  0  0  0  0
  -21.5018   17.8190  -11.0754 O   0  0  0  0  0  0
  -21.5546   20.0129  -12.0750 C   0  0  0  0  0  0
  -22.4187   20.7141  -11.4120 N   0  0  0  0  0  0
  -22.2822   22.0794  -11.3937 N   0  3  0  0  0  0
  -21.2431   22.7474  -12.0458 C   0  0  0  0  0  0
  -21.0389   23.9601  -12.0704 O   0  0  0  0  0  0
  -20.2711   21.8866  -12.7583 C   0  0  0  0  0  0
  -20.3874   20.5566  -12.8235 C   0  0  0  0  0  0
  -19.5144   19.7161  -13.4969 N   0  0  0  0  0  0
  -19.5537   18.2571  -13.3448 C   0  0  0  0  0  0
  -19.5953   17.6158  -14.7333 C   0  0  0  0  0  0
  -18.4993   18.1517  -15.6231 C   0  0  0  0  0  0
  -17.9052   19.3993  -15.3481 C   0  0  0  0  0  0
  -18.3001   20.2257  -14.1456 C   0  0  0  0  0  0
  -16.8941   19.8790  -16.1943 C   0  0  0  0  0  0
  -16.5006   19.1477  -17.3134 C   0  0  0  0  0  0
  -17.1133   17.9305  -17.6004 C   0  0  0  0  0  0
  -18.1113   17.4346  -16.7622 C   0  0  0  0  0  0
  -23.3699   22.7511  -10.7431 C   0  0  0  0  0  0
  -24.2687   23.5979  -11.4406 C   0  0  0  0  0  0
  -24.2831   23.7497  -12.9405 C   0  0  0  0  0  0
  -25.2278   24.3346  -10.7188 C   0  0  0  0  0  0
  -25.3337   24.2176   -9.3362 C   0  0  0  0  0  0
  -24.4845   23.3588   -8.6521 C   0  0  0  0  0  0
  -23.5164   22.6314   -9.3489 C   0  0  0  0  0  0
  1  2  1  0  0  0
  2  3  1  0  0  0
  3  4  1  0  0  0
  4  5  2  0  0  0
  4  6  1  0  0  0
  6  7  2  0  0  0
  6 12  1  0  0  0
  7  8  1  0  0  0
  8  9  1  0  0  0
  8 23  1  0  0  0
  9 10  2  0  0  0
  9 11  1  0  0  0
 11 12  2  0  0  0
 12 13  1  0  0  0
 13 14  1  0  0  0
 13 18  1  0  0  0
 14 15  1  0  0  0
 15 16  1  0  0  0
 16 17  2  0  0  0
 16 22  1  0  0  0
 17 18  1  0  0  0
 17 19  1  0  0  0
 19 20  2  0  0  0
 20 21  1  0  0  0
 21 22  2  0  0  0
 23 24  2  0  0  0
 23 29  1  0  0  0
 24 25  1  0  0  0
 24 26  1  0  0  0
 26 27  2  0  0  0
 27 28  1  0  0  0
 28 29  2  0  0  0
M  END
>  <CHROM.0>
37.25350426,-72.42813449,74.40505025,63.45894137,167.38572202,61.48993695
77.18528987,-160.15239319

>  <CHROM.1>
77.11856210,-6.45584715,95.76275028,-113.72300947,-9.87448638,-21.21246564
20.37647937,-12.88925943,0.64284744,-0.65888566,-2.99429631

>  <Name>
F2272-0171

>  <RI>
3.72268e+07

>  <Rbt.Current_Directory>
/home/adria/Escritorio/rDock_CMTR_LC/2pxcA_model/inputs_sah

>  <Rbt.Executable>
rbdock ($Id: //depot/dev/client3/rdock/2013.1/src/exe/rbdock.cxx#4 $)

>  <Rbt.Library>
libRbt.so (2013.1, Build901 2013/11/27)

>  <Rbt.Parameter_File>
/home/adria/Escritorio/rDock_2013.1_src/data/scripts/dock.prm

>  <Rbt.Receptor>
sah_rdock.prm

>  <SCORE>
-46.8384

>  <SCORE.INTER>
-11.833

>  <SCORE.INTER.CONST>
1

>  <SCORE.INTER.POLAR>
-0.420688

>  <SCORE.INTER.REPUL>
0.0393862

>  <SCORE.INTER.ROT>
5

>  <SCORE.INTER.VDW>
-20.9996

>  <SCORE.INTER.norm>
-0.408034

>  <SCORE.INTRA>
-36.8556

>  <SCORE.INTRA.DIHEDRAL>
-83.5501

>  <SCORE.INTRA.DIHEDRAL.0>
98.4563

>  <SCORE.INTRA.POLAR>
0

>  <SCORE.INTRA.POLAR.0>
0

>  <SCORE.INTRA.REPUL>
0

>  <SCORE.INTRA.REPUL.0>
0

>  <SCORE.INTRA.VDW>
4.9194

>  <SCORE.INTRA.VDW.0>
-1.92757

>  <SCORE.INTRA.norm>
-1.27088

>  <SCORE.RESTR>
0

>  <SCORE.RESTR.CAVITY>
0

>  <SCORE.RESTR.norm>
0

>  <SCORE.SYSTEM>
1.85025

>  <SCORE.SYSTEM.CONST>
0

>  <SCORE.SYSTEM.DIHEDRAL>
5.54534

>  <SCORE.SYSTEM.POLAR>
-3.73096

>  <SCORE.SYSTEM.REPUL>
0.168961

>  <SCORE.SYSTEM.VDW>
10.918

>  <SCORE.SYSTEM.norm>
0.0638018

>  <SCORE.heavy>
29

>  <SCORE.norm>
-1.61512

$$$$
F2272-0171
  rDOCK(R)          3D
libRbt.so/2013.1/901 2013/11/27
 29 32  0  0  0  0  0  0  0  0999 V2000
  -22.1365   17.7760  -12.4869 C   0  0  0  0  0  0
  -22.3508   17.2453  -13.8892 C   0  0  0  0  0  0
  -21.2494   17.5885  -14.7403 O   0  0  0  0  0  0
  -20.0911   16.9342  -14.4911 C   0  0  0  0  0  0
  -19.7148   16.4412  -13.4417 O   0  0  0  0  0  0
  -19.1946   17.0806  -15.7079 C   0  0  0  0  0  0
  -19.0836   16.0190  -16.4417 N   0  0  0  0  0  0
  -18.2922   16.0735  -17.5613 N   0  3  0  0  0  0
  -17.6121   17.2283  -17.9549 C   0  0  0  0  0  0
  -16.8959   17.3682  -18.9451 O   0  0  0  0  0  0
  -17.8063   18.4160  -17.0915 C   0  0  0  0  0  0
  -18.5448   18.3934  -15.9777 C   0  0  0  0  0  0
  -18.7349   19.4738  -15.1300 N   0  0  0  0  0  0
  -18.1910   20.8055  -15.4199 C   0  0  0  0  0  0
  -19.3132   21.8373  -15.2906 C   0  0  0  0  0  0
  -20.0417   21.7002  -13.9750 C   0  0  0  0  0  0
  -20.0008   20.4858  -13.2617 C   0  0  0  0  0  0
  -19.2042   19.2977  -13.7502 C   0  0  0  0  0  0
  -20.6923   20.3810  -12.0455 C   0  0  0  0  0  0
  -21.4384   21.4533  -11.5600 C   0  0  0  0  0  0
  -21.5033   22.6409  -12.2843 C   0  0  0  0  0  0
  -20.8116   22.7647  -13.4888 C   0  0  0  0  0  0
  -18.1415   14.8049  -18.2136 C   0  0  0  0  0  0
  -16.9001   14.1217  -18.2732 C   0  0  0  0  0  0
  -15.6655   14.5619  -17.5284 C   0  0  0  0  0  0
  -16.7907   12.9500  -19.0470 C   0  0  0  0  0  0
  -17.8895   12.4299  -19.7243 C   0  0  0  0  0  0
  -19.1175   13.0707  -19.6363 C   0  0  0  0  0  0
  -19.2421   14.2428  -18.8862 C   0  0  0  0  0  0
  1  2  1  0  0  0
  2  3  1  0  0  0
  3  4  1  0  0  0
  4  5  2  0  0  0
  4  6  1  0  0  0
  6  7  2  0  0  0
  6 12  1  0  0  0
  7  8  1  0  0  0
  8  9  1  0  0  0
  8 23  1  0  0  0
  9 10  2  0  0  0
  9 11  1  0  0  0
 11 12  2  0  0  0
 12 13  1  0  0  0
 13 14  1  0  0  0
 13 18  1  0  0  0
 14 15  1  0  0  0
 15 16  1  0  0  0
 16 17  2  0  0  0
 16 22  1  0  0  0
 17 18  1  0  0  0
 17 19  1  0  0  0
 19 20  2  0  0  0
 20 21  1  0  0  0
 21 22  2  0  0  0
 23 24  2  0  0  0
 23 29  1  0  0  0
 24 25  1  0  0  0
 24 26  1  0  0  0
 26 27  2  0  0  0
 27 28  1  0  0  0
 28 29  2  0  0  0
M  END
>  <CHROM.0>
-59.81971861,67.05942391,-166.51632107,65.08730539,-30.89635786,-179.68362079
-157.75164516,-163.68782211

>  <CHROM.1>
70.82826536,-25.79172829,-105.70760734,-113.35720634,-175.35778124,-19.20391088
17.70071344,-15.71241948,2.05340050,0.77745521,0.34520638

>  <Name>
F2272-0171

>  <RI>
3.72268e+07

>  <Rbt.Current_Directory>
/home/adria/Escritorio/rDock_CMTR_LC/2pxcA_model/inputs_sah

>  <Rbt.Executable>
rbdock ($Id: //depot/dev/client3/rdock/2013.1/src/exe/rbdock.cxx#4 $)

>  <Rbt.Library>
libRbt.so (2013.1, Build901 2013/11/27)

>  <Rbt.Parameter_File>
/home/adria/Escritorio/rDock_2013.1_src/data/scripts/dock.prm

>  <Rbt.Receptor>
sah_rdock.prm

>  <SCORE>
-55.8036

>  <SCORE.INTER>
-14.4742

>  <SCORE.INTER.CONST>
1

>  <SCORE.INTER.POLAR>
-0.824621

>  <SCORE.INTER.REPUL>
0

>  <SCORE.INTER.ROT>
5

>  <SCORE.INTER.VDW>
-22.0705

>  <SCORE.INTER.norm>
-0.49911

>  <SCORE.INTRA>
-34.0959

>  <SCORE.INTRA.DIHEDRAL>
-77.9535

>  <SCORE.INTRA.DIHEDRAL.0>
98.4563

>  <SCORE.INTRA.POLAR>
0

>  <SCORE.INTRA.POLAR.0>
0

>  <SCORE.INTRA.REPUL>
0

>  <SCORE.INTRA.REPUL.0>
0

>  <SCORE.INTRA.VDW>
4.88082

>  <SCORE.INTRA.VDW.0>
-1.92757

>  <SCORE.INTRA.norm>
-1.17572

>  <SCORE.RESTR>
0

>  <SCORE.RESTR.CAVITY>
0

>  <SCORE.RESTR.norm>
0

>  <SCORE.SYSTEM>
-7.2335

>  <SCORE.SYSTEM.CONST>
0

>  <SCORE.SYSTEM.DIHEDRAL>
5.69992

>  <SCORE.SYSTEM.POLAR>
-3.68316

>  <SCORE.SYSTEM.VDW>
2.43929

>  <SCORE.SYSTEM.norm>
-0.249431

>  <SCORE.heavy>
29

>  <SCORE.norm>
-1.92426

$$$$
F2272-0171
  rDOCK(R)          3D
libRbt.so/2013.1/901 2013/11/27
 29 32  0  0  0  0  0  0  0  0999 V2000
  -18.5228   19.1911  -18.0208 C   0  0  0  0  0  0
  -18.2207   20.4131  -17.1786 C   0  0  0  0  0  0
  -19.2231   20.6011  -16.1711 O   0  0  0  0  0  0
  -19.0023   21.6207  -15.3089 C   0  0  0  0  0  0
  -18.0392   22.3659  -15.2538 O   0  0  0  0  0  0
  -20.0813   21.5787  -14.2413 C   0  0  0  0  0  0
  -20.7017   22.6979  -14.0404 N   0  0  0  0  0  0
  -21.6930   22.7391  -13.0924 N   0  3  0  0  0  0
  -22.0748   21.6231  -12.3440 C   0  0  0  0  0  0
  -22.9565   21.5682  -11.4882 O   0  0  0  0  0  0
  -21.3492   20.3674  -12.6444 C   0  0  0  0  0  0
  -20.3584   20.2950  -13.5387 C   0  0  0  0  0  0
  -19.6390   19.1474  -13.8343 N   0  0  0  0  0  0
  -20.1111   17.8074  -13.4670 C   0  0  0  0  0  0
  -20.0563   16.9074  -14.7030 C   0  0  0  0  0  0
  -18.7023   16.9644  -15.3692 C   0  0  0  0  0  0
  -17.8508   18.0670  -15.1581 C   0  0  0  0  0  0
  -18.2283   19.2042  -14.2366 C   0  0  0  0  0  0
  -16.6009   18.1002  -15.7945 C   0  0  0  0  0  0
  -16.2147   17.0715  -16.6516 C   0  0  0  0  0  0
  -17.0728   15.9995  -16.8836 C   0  0  0  0  0  0
  -18.3134   15.9461  -16.2489 C   0  0  0  0  0  0
  -22.2103   24.0579  -12.8673 C   0  0  0  0  0  0
  -21.6597   24.9374  -11.9005 C   0  0  0  0  0  0
  -20.3913   24.6538  -11.1366 C   0  0  0  0  0  0
  -22.3009   26.1626  -11.6338 C   0  0  0  0  0  0
  -23.4449   26.5424  -12.3292 C   0  0  0  0  0  0
  -23.9651   25.7048  -13.3060 C   0  0  0  0  0  0
  -23.3520   24.4783  -13.5740 C   0  0  0  0  0  0
  1  2  1  0  0  0
  2  3  1  0  0  0
  3  4  1  0  0  0
  4  5  2  0  0  0
  4  6  1  0  0  0
  6  7  2  0  0  0
  6 12  1  0  0  0
  7  8  1  0  0  0
  8  9  1  0  0  0
  8 23  1  0  0  0
  9 10  2  0  0  0
  9 11  1  0  0  0
 11 12  2  0  0  0
 12 13  1  0  0  0
 13 14  1  0  0  0
 13 18  1  0  0  0
 14 15  1  0  0  0
 15 16  1  0  0  0
 16 17  2  0  0  0
 16 22  1  0  0  0
 17 18  1  0  0  0
 17 19  1  0  0  0
 19 20  2  0  0  0
 20 21  1  0  0  0
 21 22  2  0  0  0
 23 24  2  0  0  0
 23 29  1  0  0  0
 24 25  1  0  0  0
 24 26  1  0  0  0
 26 27  2  0  0  0
 27 28  1  0  0  0
 28 29  2  0  0  0
M  END
>  <CHROM.0>
-60.83042256,66.86947973,-44.67231702,-62.01167523,168.85295311,64.87764842
83.74251934,-160.17122727

>  <CHROM.1>
176.03731219,-2.80188232,-128.82772355,-89.70765929,-162.16048347,-20.06555228
20.92424665,-14.23742948,-0.75688923,0.82152295,-0.18197318

>  <Name>
F2272-0171

>  <RI>
3.72268e+07

>  <Rbt.Current_Directory>
/home/adria/Escritorio/rDock_CMTR_LC/2pxcA_model/inputs_sah

>  <Rbt.Executable>
rbdock ($Id: //depot/dev/client3/rdock/2013.1/src/exe/rbdock.cxx#4 $)

>  <Rbt.Library>
libRbt.so (2013.1, Build901 2013/11/27)

>  <Rbt.Parameter_File>
/home/adria/Escritorio/rDock_2013.1_src/data/scripts/dock.prm

>  <Rbt.Receptor>
sah_rdock.prm

>  <SCORE>
-44.5247

>  <SCORE.INTER>
-9.8424

>  <SCORE.INTER.CONST>
1

>  <SCORE.INTER.POLAR>
-0.061983

>  <SCORE.INTER.REPUL>
0.000932936

>  <SCORE.INTER.ROT>
5

>  <SCORE.INTER.VDW>
-20.0363

>  <SCORE.INTER.norm>
-0.339393

>  <SCORE.INTRA>
-32.748

>  <SCORE.INTRA.DIHEDRAL>
-72.2158

>  <SCORE.INTRA.DIHEDRAL.0>
98.4563

>  <SCORE.INTRA.POLAR>
0

>  <SCORE.INTRA.POLAR.0>
0

>  <SCORE.INTRA.REPUL>
0

>  <SCORE.INTRA.REPUL.0>
0

>  <SCORE.INTRA.VDW>
3.35996

>  <SCORE.INTRA.VDW.0>
-1.92757

>  <SCORE.INTRA.norm>
-1.12924

>  <SCORE.RESTR>
0

>  <SCORE.RESTR.CAVITY>
0

>  <SCORE.RESTR.norm>
0

>  <SCORE.SYSTEM>
-1.93429

>  <SCORE.SYSTEM.CONST>
0

>  <SCORE.SYSTEM.DIHEDRAL>
3.23085

>  <SCORE.SYSTEM.POLAR>
-3.59892

>  <SCORE.SYSTEM.VDW>
8.6866

>  <SCORE.SYSTEM.norm>
-0.0666998

>  <SCORE.heavy>
29

>  <SCORE.norm>
-1.53533

$$$$
F2272-0171
  rDOCK(R)          3D
libRbt.so/2013.1/901 2013/11/27
 29 32  0  0  0  0  0  0  0  0999 V2000
  -24.6321   24.6825  -12.2208 C   0  0  0  0  0  0
  -23.3779   24.4337  -13.0327 C   0  0  0  0  0  0
  -22.7789   23.1803  -12.6784 O   0  0  0  0  0  0
  -23.4003   22.0782  -13.1589 C   0  0  0  0  0  0
  -24.5503   21.9711  -13.5488 O   0  0  0  0  0  0
  -22.4810   20.8880  -12.9486 C   0  0  0  0  0  0
  -21.6398   20.6651  -13.9080 N   0  0  0  0  0  0
  -20.7730   19.6079  -13.7898 N   0  3  0  0  0  0
  -20.7460   18.7693  -12.6730 C   0  0  0  0  0  0
  -19.9978   17.8123  -12.4799 O   0  0  0  0  0  0
  -21.7104   19.0973  -11.5979 C   0  0  0  0  0  0
  -22.5898   20.0998  -11.6896 C   0  0  0  0  0  0
  -23.5234   20.4273  -10.7184 N   0  0  0  0  0  0
  -23.5959   19.7279   -9.4304 C   0  0  0  0  0  0
  -23.6013   20.7637   -8.3045 C   0  0  0  0  0  0
  -24.6518   21.8241   -8.5334 C   0  0  0  0  0  0
  -25.1493   22.0653   -9.8294 C   0  0  0  0  0  0
  -24.6942   21.2585  -11.0239 C   0  0  0  0  0  0
  -26.1194   23.0613  -10.0174 C   0  0  0  0  0  0
  -26.5659   23.8274   -8.9424 C   0  0  0  0  0  0
  -26.0476   23.6083   -7.6686 C   0  0  0  0  0  0
  -25.0918   22.6139   -7.4635 C   0  0  0  0  0  0
  -19.9869   19.3824  -14.9682 C   0  0  0  0  0  0
  -19.2614   20.4184  -15.6098 C   0  0  0  0  0  0
  -19.1026   21.8056  -15.0410 C   0  0  0  0  0  0
  -18.6242   20.1595  -16.8387 C   0  0  0  0  0  0
  -18.6624   18.8940  -17.4164 C   0  0  0  0  0  0
  -19.3356   17.8649  -16.7730 C   0  0  0  0  0  0
  -19.9870   18.1062  -15.5608 C   0  0  0  0  0  0
  1  2  1  0  0  0
  2  3  1  0  0  0
  3  4  1  0  0  0
  4  5  2  0  0  0
  4  6  1  0  0  0
  6  7  2  0  0  0
  6 12  1  0  0  0
  7  8  1  0  0  0
  8  9  1  0  0  0
  8 23  1  0  0  0
  9 10  2  0  0  0
  9 11  1  0  0  0
 11 12  2  0  0  0
 12 13  1  0  0  0
 13 14  1  0  0  0
 13 18  1  0  0  0
 14 15  1  0  0  0
 15 16  1  0  0  0
 16 17  2  0  0  0
 16 22  1  0  0  0
 17 18  1  0  0  0
 17 19  1  0  0  0
 19 20  2  0  0  0
 20 21  1  0  0  0
 21 22  2  0  0  0
 23 24  2  0  0  0
 23 29  1  0  0  0
 24 25  1  0  0  0
 24 26  1  0  0  0
 26 27  2  0  0  0
 27 28  1  0  0  0
 28 29  2  0  0  0
M  END
>  <CHROM.0>
-60.96310434,-72.40667849,75.65091772,63.55339392,-30.09669188,-57.63125654
-35.72230459,-161.53660321

>  <CHROM.1>
75.52400491,-20.53072090,-88.17446038,50.58544926,-175.80797612,-22.51224134
21.03232080,-12.34864189,2.90990296,-0.87537303,2.34540078

>  <Name>
F2272-0171

>  <RI>
3.72268e+07

>  <Rbt.Current_Directory>
/home/adria/Escritorio/rDock_CMTR_LC/2pxcA_model/inputs_sah

>  <Rbt.Executable>
rbdock ($Id: //depot/dev/client3/rdock/2013.1/src/exe/rbdock.cxx#4 $)

>  <Rbt.Library>
libRbt.so (2013.1, Build901 2013/11/27)

>  <Rbt.Parameter_File>
/home/adria/Escritorio/rDock_2013.1_src/data/scripts/dock.prm

>  <Rbt.Receptor>
sah_rdock.prm

>  <SCORE>
-51.732

>  <SCORE.INTER>
-10.3574

>  <SCORE.INTER.CONST>
1

>  <SCORE.INTER.POLAR>
-0.721885

>  <SCORE.INTER.REPUL>
0.0368168

>  <SCORE.INTER.ROT>
5

>  <SCORE.INTER.VDW>
-18.4871

>  <SCORE.INTER.norm>
-0.357151

>  <SCORE.INTRA>
-33.5883

>  <SCORE.INTRA.DIHEDRAL>
-78.5456

>  <SCORE.INTRA.DIHEDRAL.0>
98.4563

>  <SCORE.INTRA.POLAR>
0

>  <SCORE.INTRA.POLAR.0>
0

>  <SCORE.INTRA.REPUL>
0

>  <SCORE.INTRA.REPUL.0>
0

>  <SCORE.INTRA.VDW>
5.68448

>  <SCORE.INTRA.VDW.0>
-1.92757

>  <SCORE.INTRA.norm>
-1.15822

>  <SCORE.RESTR>
0

>  <SCORE.RESTR.CAVITY>
0

>  <SCORE.RESTR.norm>
0

>  <SCORE.SYSTEM>
-7.78631

>  <SCORE.SYSTEM.CONST>
0

>  <SCORE.SYSTEM.DIHEDRAL>
6.71723

>  <SCORE.SYSTEM.POLAR>
-4.103

>  <SCORE.SYSTEM.REPUL>
0.0374588

>  <SCORE.SYSTEM.VDW>
2.61799

>  <SCORE.SYSTEM.norm>
-0.268493

>  <SCORE.heavy>
29

>  <SCORE.norm>
-1.78386

$$$$
F2272-0171
  rDOCK(R)          3D
libRbt.so/2013.1/901 2013/11/27
 29 32  0  0  0  0  0  0  0  0999 V2000
  -24.4542   18.2030  -17.0827 C   0  0  0  0  0  0
  -23.5285   17.8978  -15.9234 C   0  0  0  0  0  0
  -22.9195   19.0962  -15.4252 O   0  0  0  0  0  0
  -22.0091   18.9236  -14.4388 C   0  0  0  0  0  0
  -21.6931   17.8886  -13.8776 O   0  0  0  0  0  0
  -21.5577   20.2946  -13.9673 C   0  0  0  0  0  0
  -22.3361   20.8641  -13.1028 N   0  0  0  0  0  0
  -21.9937   22.1047  -12.6267 N   0  3  0  0  0  0
  -20.8337   22.7757  -13.0210 C   0  0  0  0  0  0
  -20.4456   23.8779  -12.6371 O   0  0  0  0  0  0
  -19.9707   22.0570  -13.9865 C   0  0  0  0  0  0
  -20.2854   20.8616  -14.4950 C   0  0  0  0  0  0
  -19.5190   20.1647  -15.4163 N   0  0  0  0  0  0
  -18.2906   20.7194  -15.9966 C   0  0  0  0  0  0
  -17.1650   19.6942  -15.8453 C   0  0  0  0  0  0
  -17.5791   18.3377  -16.3637 C   0  0  0  0  0  0
  -18.9434   18.0015  -16.4682 C   0  0  0  0  0  0
  -20.0382   18.9815  -16.1131 C   0  0  0  0  0  0
  -19.3025   16.7320  -16.9455 C   0  0  0  0  0  0
  -18.3238   15.7994  -17.2839 C   0  0  0  0  0  0
  -16.9764   16.1238  -17.1480 C   0  0  0  0  0  0
  -16.6035   17.3858  -16.6865 C   0  0  0  0  0  0
  -22.9967   22.6868  -11.7826 C   0  0  0  0  0  0
  -23.8374   23.7436  -12.2159 C   0  0  0  0  0  0
  -23.8841   24.2479  -13.6359 C   0  0  0  0  0  0
  -24.7044   24.3615  -11.2941 C   0  0  0  0  0  0
  -24.7780   23.9282   -9.9736 C   0  0  0  0  0  0
  -23.9882   22.8670   -9.5536 C   0  0  0  0  0  0
  -23.1105   22.2514  -10.4495 C   0  0  0  0  0  0
  1  2  1  0  0  0
  2  3  1  0  0  0
  3  4  1  0  0  0
  4  5  2  0  0  0
  4  6  1  0  0  0
  6  7  2  0  0  0
  6 12  1  0  0  0
  7  8  1  0  0  0
  8  9  1  0  0  0
  8 23  1  0  0  0
  9 10  2  0  0  0
  9 11  1  0  0  0
 11 12  2  0  0  0
 12 13  1  0  0  0
 13 14  1  0  0  0
 13 18  1  0  0  0
 14 15  1  0  0  0
 15 16  1  0  0  0
 16 17  2  0  0  0
 16 22  1  0  0  0
 17 18  1  0  0  0
 17 19  1  0  0  0
 19 20  2  0  0  0
 20 21  1  0  0  0
 21 22  2  0  0  0
 23 24  2  0  0  0
 23 29  1  0  0  0
 24 25  1  0  0  0
 24 26  1  0  0  0
 26 27  2  0  0  0
 27 28  1  0  0  0
 28 29  2  0  0  0
M  END
>  <CHROM.0>
-178.00985018,-75.82370198,-167.16990028,62.84925593,-31.62401884,59.95298858
82.97331515,-167.03346575

>  <CHROM.1>
-176.11161226,-4.04022091,82.90715777,-105.48871214,177.41113690,-21.14028184
20.36908307,-14.28917080,0.98771359,-0.16618966,-2.52459196

>  <Name>
F2272-0171

>  <RI>
3.72268e+07

>  <Rbt.Current_Directory>
/home/adria/Escritorio/rDock_CMTR_LC/2pxcA_model/inputs_sah

>  <Rbt.Executable>
rbdock ($Id: //depot/dev/client3/rdock/2013.1/src/exe/rbdock.cxx#4 $)

>  <Rbt.Library>
libRbt.so (2013.1, Build901 2013/11/27)

>  <Rbt.Parameter_File>
/home/adria/Escritorio/rDock_2013.1_src/data/scripts/dock.prm

>  <Rbt.Receptor>
sah_rdock.prm

>  <SCORE>
-54.3251

>  <SCORE.INTER>
-9.36874

>  <SCORE.INTER.CONST>
1

>  <SCORE.INTER.POLAR>
0

>  <SCORE.INTER.REPUL>
0

>  <SCORE.INTER.ROT>
5

>  <SCORE.INTER.VDW>
-19.7687

>  <SCORE.INTER.norm>
-0.32306

>  <SCORE.INTRA>
-37.9138

>  <SCORE.INTRA.DIHEDRAL>
-84.3055

>  <SCORE.INTRA.DIHEDRAL.0>
98.4563

>  <SCORE.INTRA.POLAR>
0

>  <SCORE.INTRA.POLAR.0>
0

>  <SCORE.INTRA.REPUL>
0

>  <SCORE.INTRA.REPUL.0>
0

>  <SCORE.INTRA.VDW>
4.23899

>  <SCORE.INTRA.VDW.0>
-1.92757

>  <SCORE.INTRA.norm>
-1.30737

>  <SCORE.RESTR>
0

>  <SCORE.RESTR.CAVITY>
0

>  <SCORE.RESTR.norm>
0

>  <SCORE.SYSTEM>
-7.04263

>  <SCORE.SYSTEM.CONST>
0

>  <SCORE.SYSTEM.DIHEDRAL>
6.30556

>  <SCORE.SYSTEM.POLAR>
-3.94562

>  <SCORE.SYSTEM.REPUL>
0.0431834

>  <SCORE.SYSTEM.VDW>
3.00377

>  <SCORE.SYSTEM.norm>
-0.242849

>  <SCORE.heavy>
29

>  <SCORE.norm>
-1.87328

$$$$
F2272-0171
  rDOCK(R)          3D
libRbt.so/2013.1/901 2013/11/27
 29 32  0  0  0  0  0  0  0  0999 V2000
  -20.8996   25.2365  -11.0655 C   0  0  0  0  0  0
  -19.8004   24.2199  -11.2937 C   0  0  0  0  0  0
  -20.2956   22.8847  -11.1289 O   0  0  0  0  0  0
  -21.0950   22.4303  -12.1220 C   0  0  0  0  0  0
  -21.1656   22.8253  -13.2730 O   0  0  0  0  0  0
  -22.0815   21.4448  -11.5207 C   0  0  0  0  0  0
  -23.0159   21.9732  -10.7959 N   0  0  0  0  0  0
  -23.9479   21.1468  -10.2201 N   0  3  0  0  0  0
  -23.9439   19.7607  -10.3934 C   0  0  0  0  0  0
  -24.7439   18.9510   -9.9274 O   0  0  0  0  0  0
  -22.8691   19.2230  -11.2591 C   0  0  0  0  0  0
  -21.9266   19.9925  -11.8125 C   0  0  0  0  0  0
  -20.8914   19.5290  -12.6096 N   0  0  0  0  0  0
  -20.6446   18.0985  -12.8243 C   0  0  0  0  0  0
  -20.5307   17.8360  -14.3272 C   0  0  0  0  0  0
  -19.5445   18.7752  -14.9796 C   0  0  0  0  0  0
  -19.2143   19.9996  -14.3655 C   0  0  0  0  0  0
  -19.7889   20.4038  -13.0271 C   0  0  0  0  0  0
  -18.3012   20.8586  -14.9954 C   0  0  0  0  0  0
  -17.7484   20.5230  -16.2299 C   0  0  0  0  0  0
  -18.1026   19.3272  -16.8493 C   0  0  0  0  0  0
  -18.9996   18.4572  -16.2302 C   0  0  0  0  0  0
  -24.8464   21.8314   -9.3362 C   0  0  0  0  0  0
  -26.2192   22.0178   -9.6397 C   0  0  0  0  0  0
  -26.9091   21.3839  -10.8209 C   0  0  0  0  0  0
  -27.0130   22.8178   -8.7952 C   0  0  0  0  0  0
  -26.4828   23.3984   -7.6470 C   0  0  0  0  0  0
  -25.1504   23.1857   -7.3218 C   0  0  0  0  0  0
  -24.3430   22.4079   -8.1555 C   0  0  0  0  0  0
  1  2  1  0  0  0
  2  3  1  0  0  0
  3  4  1  0  0  0
  4  5  2  0  0  0
  4  6  1  0  0  0
  6  7  2  0  0  0
  6 12  1  0  0  0
  7  8  1  0  0  0
  8  9  1  0  0  0
  8 23  1  0  0  0
  9 10  2  0  0  0
  9 11  1  0  0  0
 11 12  2  0  0  0
 12 13  1  0  0  0
 13 14  1  0  0  0
 13 18  1  0  0  0
 14 15  1  0  0  0
 15 16  1  0  0  0
 16 17  2  0  0  0
 16 22  1  0  0  0
 17 18  1  0  0  0
 17 19  1  0  0  0
 19 20  2  0  0  0
 20 21  1  0  0  0
 21 22  2  0  0  0
 23 24  2  0  0  0
 23 29  1  0  0  0
 24 25  1  0  0  0
 24 26  1  0  0  0
 26 27  2  0  0  0
 27 28  1  0  0  0
 28 29  2  0  0  0
M  END
>  <CHROM.0>
-61.83145340,65.18254090,73.37257794,64.04260682,168.36277764,178.11964892
82.75094462,-163.82049844

>  <CHROM.1>
72.92704300,21.87508421,72.83796260,110.83929718,174.75289333,-22.08391174
21.09620345,-11.81571789,-2.58198242,-0.59910665,-2.70481895

>  <Name>
F2272-0171

>  <RI>
3.72268e+07

>  <Rbt.Current_Directory>
/home/adria/Escritorio/rDock_CMTR_LC/2pxcA_model/inputs_sah

>  <Rbt.Executable>
rbdock ($Id: //depot/dev/client3/rdock/2013.1/src/exe/rbdock.cxx#4 $)

>  <Rbt.Library>
libRbt.so (2013.1, Build901 2013/11/27)

>  <Rbt.Parameter_File>
/home/adria/Escritorio/rDock_2013.1_src/data/scripts/dock.prm

>  <Rbt.Receptor>
sah_rdock.prm

>  <SCORE>
-46.2121

>  <SCORE.INTER>
-9.03413

>  <SCORE.INTER.CONST>
1

>  <SCORE.INTER.POLAR>
0

>  <SCORE.INTER.REPUL>
0

>  <SCORE.INTER.ROT>
5

>  <SCORE.INTER.VDW>
-19.4341

>  <SCORE.INTER.norm>
-0.311522

>  <SCORE.INTRA>
-34.7349

>  <SCORE.INTRA.DIHEDRAL>
-80.1949

>  <SCORE.INTRA.DIHEDRAL.0>
98.4563

>  <SCORE.INTRA.POLAR>
0

>  <SCORE.INTRA.POLAR.0>
0

>  <SCORE.INTRA.REPUL>
0

>  <SCORE.INTRA.REPUL.0>
0

>  <SCORE.INTRA.VDW>
5.3625

>  <SCORE.INTRA.VDW.0>
-1.92757

>  <SCORE.INTRA.norm>
-1.19776

>  <SCORE.RESTR>
0

>  <SCORE.RESTR.CAVITY>
0

>  <SCORE.RESTR.norm>
0

>  <SCORE.SYSTEM>
-2.44307

>  <SCORE.SYSTEM.CONST>
0

>  <SCORE.SYSTEM.DIHEDRAL>
2.81452

>  <SCORE.SYSTEM.POLAR>
-3.63504

>  <SCORE.SYSTEM.VDW>
8.50881

>  <SCORE.SYSTEM.norm>
-0.0842439

>  <SCORE.heavy>
29

>  <SCORE.norm>
-1.59352

$$$$
F2272-0171
  rDOCK(R)          3D
libRbt.so/2013.1/901 2013/11/27
 29 32  0  0  0  0  0  0  0  0999 V2000
  -18.2437   13.7685  -15.5249 C   0  0  0  0  0  0
  -17.5226   15.0928  -15.6670 C   0  0  0  0  0  0
  -18.2790   16.1542  -15.0699 O   0  0  0  0  0  0
  -19.3853   16.5380  -15.7485 C   0  0  0  0  0  0
  -19.7802   16.1423  -16.8317 O   0  0  0  0  0  0
  -19.9895   17.7319  -15.0305 C   0  0  0  0  0  0
  -20.9441   17.4512  -14.2014 N   0  0  0  0  0  0
  -21.5389   18.4776  -13.5117 N   0  3  0  0  0  0
  -21.1504   19.8120  -13.6518 C   0  0  0  0  0  0
  -21.6176   20.7877  -13.0665 O   0  0  0  0  0  0
  -20.0324   20.0621  -14.5905 C   0  0  0  0  0  0
  -19.4483   19.0928  -15.3019 C   0  0  0  0  0  0
  -18.4157   19.2852  -16.2066 N   0  0  0  0  0  0
  -17.8296   20.6062  -16.4610 C   0  0  0  0  0  0
  -16.3082   20.5052  -16.3351 C   0  0  0  0  0  0
  -15.7580   19.3735  -17.1698 C   0  0  0  0  0  0
  -16.5901   18.3042  -17.5565 C   0  0  0  0  0  0
  -18.0576   18.2621  -17.1966 C   0  0  0  0  0  0
  -16.0534   17.2607  -18.3255 C   0  0  0  0  0  0
  -14.7052   17.2617  -18.6786 C   0  0  0  0  0  0
  -13.8785   18.3038  -18.2665 C   0  0  0  0  0  0
  -14.3998   19.3543  -17.5121 C   0  0  0  0  0  0
  -22.6665   18.0594  -12.7299 C   0  0  0  0  0  0
  -22.7948   18.3688  -11.3518 C   0  0  0  0  0  0
  -21.8639   19.2952  -10.6114 C   0  0  0  0  0  0
  -23.8555   17.8107  -10.6124 C   0  0  0  0  0  0
  -24.8020   16.9904  -11.2189 C   0  0  0  0  0  0
  -24.7059   16.7173  -12.5763 C   0  0  0  0  0  0
  -23.6519   17.2492  -13.3234 C   0  0  0  0  0  0
  1  2  1  0  0  0
  2  3  1  0  0  0
  3  4  1  0  0  0
  4  5  2  0  0  0
  4  6  1  0  0  0
  6  7  2  0  0  0
  6 12  1  0  0  0
  7  8  1  0  0  0
  8  9  1  0  0  0
  8 23  1  0  0  0
  9 10  2  0  0  0
  9 11  1  0  0  0
 11 12  2  0  0  0
 12 13  1  0  0  0
 13 14  1  0  0  0
 13 18  1  0  0  0
 14 15  1  0  0  0
 15 16  1  0  0  0
 16 17  2  0  0  0
 16 22  1  0  0  0
 17 18  1  0  0  0
 17 19  1  0  0  0
 19 20  2  0  0  0
 20 21  1  0  0  0
 21 22  2  0  0  0
 23 24  2  0  0  0
 23 29  1  0  0  0
 24 25  1  0  0  0
 24 26  1  0  0  0
 26 27  2  0  0  0
 27 28  1  0  0  0
 28 29  2  0  0  0
M  END
>  <CHROM.0>
-177.79429893,66.77174029,-41.89233339,-59.39506716,-30.40377820,-175.35410910
-37.83071656,-41.55801996

>  <CHROM.1>
-72.83333875,-4.04160736,-95.85240668,128.09997537,-177.81945760,-19.45361114
18.04960181,-14.97300723,0.09750023,-0.63509364,-2.96100324

>  <Name>
F2272-0171

>  <RI>
3.72268e+07

>  <Rbt.Current_Directory>
/home/adria/Escritorio/rDock_CMTR_LC/2pxcA_model/inputs_sah

>  <Rbt.Executable>
rbdock ($Id: //depot/dev/client3/rdock/2013.1/src/exe/rbdock.cxx#4 $)

>  <Rbt.Library>
libRbt.so (2013.1, Build901 2013/11/27)

>  <Rbt.Parameter_File>
/home/adria/Escritorio/rDock_2013.1_src/data/scripts/dock.prm

>  <Rbt.Receptor>
sah_rdock.prm

>  <SCORE>
-48.163

>  <SCORE.INTER>
-8.77882

>  <SCORE.INTER.CONST>
1

>  <SCORE.INTER.POLAR>
0

>  <SCORE.INTER.REPUL>
0.00136813

>  <SCORE.INTER.ROT>
5

>  <SCORE.INTER.VDW>
-19.1857

>  <SCORE.INTER.norm>
-0.302718

>  <SCORE.INTRA>
-35.2404

>  <SCORE.INTRA.DIHEDRAL>
-81.7647

>  <SCORE.INTRA.DIHEDRAL.0>
98.4563

>  <SCORE.INTRA.POLAR>
0

>  <SCORE.INTRA.POLAR.0>
0

>  <SCORE.INTRA.REPUL>
0

>  <SCORE.INTRA.REPUL.0>
0

>  <SCORE.INTRA.VDW>
5.64199

>  <SCORE.INTRA.VDW.0>
-1.92757

>  <SCORE.INTRA.norm>
-1.21519

>  <SCORE.RESTR>
0.0163969

>  <SCORE.RESTR.CAVITY>
0.0163969

>  <SCORE.RESTR.norm>
0.00056541

>  <SCORE.SYSTEM>
-4.16022

>  <SCORE.SYSTEM.CONST>
0

>  <SCORE.SYSTEM.DIHEDRAL>
7.76971

>  <SCORE.SYSTEM.POLAR>
-3.28839

>  <SCORE.SYSTEM.REPUL>
0.0332305

>  <SCORE.SYSTEM.VDW>
2.96931

>  <SCORE.SYSTEM.norm>
-0.143456

>  <SCORE.heavy>
29

>  <SCORE.norm>
-1.66079

$$$$
F2272-0171
  rDOCK(R)          3D
libRbt.so/2013.1/901 2013/11/27
 29 32  0  0  0  0  0  0  0  0999 V2000
  -22.9705   18.1061  -16.5348 C   0  0  0  0  0  0
  -22.1192   18.2642  -15.2921 C   0  0  0  0  0  0
  -21.0362   17.3248  -15.2905 O   0  0  0  0  0  0
  -20.1945   17.4039  -14.2336 C   0  0  0  0  0  0
  -19.6365   16.4940  -13.6448 O   0  0  0  0  0  0
  -20.1981   18.8375  -13.7331 C   0  0  0  0  0  0
  -21.0031   19.0748  -12.7465 N   0  0  0  0  0  0
  -21.0608   20.3475  -12.2367 N   0  3  0  0  0  0
  -20.2781   21.3969  -12.7238 C   0  0  0  0  0  0
  -20.2570   22.5583  -12.3195 O   0  0  0  0  0  0
  -19.3556   21.0524  -13.8301 C   0  0  0  0  0  0
  -19.2926   19.8324  -14.3725 C   0  0  0  0  0  0
  -18.4613   19.4729  -15.4221 N   0  0  0  0  0  0
  -17.6613   20.4550  -16.1629 C   0  0  0  0  0  0
  -16.2109   19.9712  -16.2182 C   0  0  0  0  0  0
  -16.1212   18.5472  -16.7128 C   0  0  0  0  0  0
  -17.2356   17.6900  -16.6204 C   0  0  0  0  0  0
  -18.5631   18.1601  -16.0711 C   0  0  0  0  0  0
  -17.1248   16.3690  -17.0799 C   0  0  0  0  0  0
  -15.9186   15.8963  -17.5936 C   0  0  0  0  0  0
  -14.8100   16.7370  -17.6526 C   0  0  0  0  0  0
  -14.9077   18.0561  -17.2112 C   0  0  0  0  0  0
  -22.0810   20.5162  -11.2425 C   0  0  0  0  0  0
  -23.1589   21.4237  -11.4036 C   0  0  0  0  0  0
  -23.4396   22.1721  -12.6819 C   0  0  0  0  0  0
  -24.0469   21.6416  -10.3325 C   0  0  0  0  0  0
  -23.9073   20.9539   -9.1307 C   0  0  0  0  0  0
  -22.8792   20.0335   -8.9812 C   0  0  0  0  0  0
  -21.9790   19.8150  -10.0270 C   0  0  0  0  0  0
  1  2  1  0  0  0
  2  3  1  0  0  0
  3  4  1  0  0  0
  4  5  2  0  0  0
  4  6  1  0  0  0
  6  7  2  0  0  0
  6 12  1  0  0  0
  7  8  1  0  0  0
  8  9  1  0  0  0
  8 23  1  0  0  0
  9 10  2  0  0  0
  9 11  1  0  0  0
 11 12  2  0  0  0
 12 13  1  0  0  0
 13 14  1  0  0  0
 13 18  1  0  0  0
 14 15  1  0  0  0
 15 16  1  0  0  0
 16 17  2  0  0  0
 16 22  1  0  0  0
 17 18  1  0  0  0
 17 19  1  0  0  0
 19 20  2  0  0  0
 20 21  1  0  0  0
 21 22  2  0  0  0
 23 24  2  0  0  0
 23 29  1  0  0  0
 24 25  1  0  0  0
 24 26  1  0  0  0
 26 27  2  0  0  0
 27 28  1  0  0  0
 28 29  2  0  0  0
M  END
>  <CHROM.0>
-178.85234955,-169.06190381,-167.70942428,62.74627309,-29.24055145,-178.41991384
-157.85713347,-161.86751243

>  <CHROM.1>
178.53583197,143.27961947,95.77573298,-118.56014996,173.55841802,-19.89449643
19.25877258,-14.06929093,2.42222694,0.45960499,0.59536450

>  <Name>
F2272-0171

>  <RI>
3.72268e+07

>  <Rbt.Current_Directory>
/home/adria/Escritorio/rDock_CMTR_LC/2pxcA_model/inputs_sah

>  <Rbt.Executable>
rbdock ($Id: //depot/dev/client3/rdock/2013.1/src/exe/rbdock.cxx#4 $)

>  <Rbt.Library>
libRbt.so (2013.1, Build901 2013/11/27)

>  <Rbt.Parameter_File>
/home/adria/Escritorio/rDock_2013.1_src/data/scripts/dock.prm

>  <Rbt.Receptor>
sah_rdock.prm

>  <SCORE>
-49.261

>  <SCORE.INTER>
-13.8275

>  <SCORE.INTER.CONST>
1

>  <SCORE.INTER.POLAR>
-0.795751

>  <SCORE.INTER.REPUL>
0.0428923

>  <SCORE.INTER.ROT>
5

>  <SCORE.INTER.VDW>
-21.7364

>  <SCORE.INTER.norm>
-0.47681

>  <SCORE.INTRA>
-29.4346

>  <SCORE.INTRA.DIHEDRAL>
-78.5271

>  <SCORE.INTRA.DIHEDRAL.0>
98.4563

>  <SCORE.INTRA.POLAR>
0

>  <SCORE.INTRA.POLAR.0>
0

>  <SCORE.INTRA.REPUL>
0

>  <SCORE.INTRA.REPUL.0>
0

>  <SCORE.INTRA.VDW>
9.82891

>  <SCORE.INTRA.VDW.0>
-1.92757

>  <SCORE.INTRA.norm>
-1.01499

>  <SCORE.RESTR>
0

>  <SCORE.RESTR.CAVITY>
0

>  <SCORE.RESTR.norm>
0

>  <SCORE.SYSTEM>
-5.99882

>  <SCORE.SYSTEM.CONST>
0

>  <SCORE.SYSTEM.DIHEDRAL>
6.27268

>  <SCORE.SYSTEM.POLAR>
-3.66192

>  <SCORE.SYSTEM.VDW>
3.31536

>  <SCORE.SYSTEM.norm>
-0.206856

>  <SCORE.heavy>
29

>  <SCORE.norm>
-1.69865

$$$$
F2272-0171
  rDOCK(R)          3D
libRbt.so/2013.1/901 2013/11/27
 29 32  0  0  0  0  0  0  0  0999 V2000
  -21.8411   25.8136  -11.3892 C   0  0  0  0  0  0
  -22.6989   24.8762  -12.2136 C   0  0  0  0  0  0
  -22.0926   23.5809  -12.3122 O   0  0  0  0  0  0
  -22.7652   22.6753  -13.0601 C   0  0  0  0  0  0
  -23.8596   22.7941  -13.5836 O   0  0  0  0  0  0
  -22.0191   21.3548  -12.9870 C   0  0  0  0  0  0
  -21.1023   21.1892  -13.8870 N   0  0  0  0  0  0
  -20.3820   20.0212  -13.8845 N   0  3  0  0  0  0
  -20.5822   19.0076  -12.9444 C   0  0  0  0  0  0
  -19.9763   17.9405  -12.8613 O   0  0  0  0  0  0
  -21.6221   19.2724  -11.9235 C   0  0  0  0  0  0
  -22.3642   20.3841  -11.9114 C   0  0  0  0  0  0
  -23.3615   20.6620  -10.9894 N   0  0  0  0  0  0
  -23.6531   19.7766   -9.8561 C   0  0  0  0  0  0
  -23.6757   20.6077   -8.5718 C   0  0  0  0  0  0
  -24.5750   21.8130   -8.7087 C   0  0  0  0  0  0
  -24.8943   22.3219   -9.9832 C   0  0  0  0  0  0
  -24.3953   21.6705  -11.2526 C   0  0  0  0  0  0
  -25.7257   23.4476  -10.0838 C   0  0  0  0  0  0
  -26.2070   24.0776   -8.9377 C   0  0  0  0  0  0
  -25.8622   23.5914   -7.6791 C   0  0  0  0  0  0
  -25.0468   22.4662   -7.5629 C   0  0  0  0  0  0
  -19.4943   19.8980  -15.0044 C   0  0  0  0  0  0
  -19.8739   19.2554  -16.2103 C   0  0  0  0  0  0
  -21.2771   18.7895  -16.5051 C   0  0  0  0  0  0
  -18.9112   19.0465  -17.2167 C   0  0  0  0  0  0
  -17.6021   19.4934  -17.0641 C   0  0  0  0  0  0
  -17.2345   20.1601  -15.9036 C   0  0  0  0  0  0
  -18.1715   20.3630  -14.8874 C   0  0  0  0  0  0
  1  2  1  0  0  0
  2  3  1  0  0  0
  3  4  1  0  0  0
  4  5  2  0  0  0
  4  6  1  0  0  0
  6  7  2  0  0  0
  6 12  1  0  0  0
  7  8  1  0  0  0
  8  9  1  0  0  0
  8 23  1  0  0  0
  9 10  2  0  0  0
  9 11  1  0  0  0
 11 12  2  0  0  0
 12 13  1  0  0  0
 13 14  1  0  0  0
 13 18  1  0  0  0
 14 15  1  0  0  0
 15 16  1  0  0  0
 16 17  2  0  0  0
 16 22  1  0  0  0
 17 18  1  0  0  0
 17 19  1  0  0  0
 19 20  2  0  0  0
 20 21  1  0  0  0
 21 22  2  0  0  0
 23 24  2  0  0  0
 23 29  1  0  0  0
 24 25  1  0  0  0
 24 26  1  0  0  0
 26 27  2  0  0  0
 27 28  1  0  0  0
 28 29  2  0  0  0
M  END
>  <CHROM.0>
178.36849842,-167.11071332,-46.82379220,62.12808435,-31.35351507,-58.04744869
-157.26887242,-160.98512991

>  <CHROM.1>
-178.36145654,-5.38492000,-89.02384470,-92.26932352,-175.04025642,-22.11631266
21.27730657,-12.40025341,-2.98152075,-0.89134489,2.84941920

>  <Name>
F2272-0171

>  <RI>
3.72268e+07

>  <Rbt.Current_Directory>
/home/adria/Escritorio/rDock_CMTR_LC/2pxcA_model/inputs_sah

>  <Rbt.Executable>
rbdock ($Id: //depot/dev/client3/rdock/2013.1/src/exe/rbdock.cxx#4 $)

>  <Rbt.Library>
libRbt.so (2013.1, Build901 2013/11/27)

>  <Rbt.Parameter_File>
/home/adria/Escritorio/rDock_2013.1_src/data/scripts/dock.prm

>  <Rbt.Receptor>
sah_rdock.prm

>  <SCORE>
-55.147

>  <SCORE.INTER>
-12.4867

>  <SCORE.INTER.CONST>
1

>  <SCORE.INTER.POLAR>
-0.824621

>  <SCORE.INTER.REPUL>
0.0248074

>  <SCORE.INTER.ROT>
5

>  <SCORE.INTER.VDW>
-20.2071

>  <SCORE.INTER.norm>
-0.430577

>  <SCORE.INTRA>
-36.5312

>  <SCORE.INTRA.DIHEDRAL>
-80.9493

>  <SCORE.INTRA.DIHEDRAL.0>
98.4563

>  <SCORE.INTRA.POLAR>
0

>  <SCORE.INTRA.POLAR.0>
0

>  <SCORE.INTRA.REPUL>
0

>  <SCORE.INTRA.REPUL.0>
0

>  <SCORE.INTRA.VDW>
3.94346

>  <SCORE.INTRA.VDW.0>
-1.92757

>  <SCORE.INTRA.norm>
-1.2597

>  <SCORE.RESTR>
0

>  <SCORE.RESTR.CAVITY>
0

>  <SCORE.RESTR.norm>
0

>  <SCORE.SYSTEM>
-6.12902

>  <SCORE.SYSTEM.CONST>
0

>  <SCORE.SYSTEM.DIHEDRAL>
6.23189

>  <SCORE.SYSTEM.POLAR>
-3.69777

>  <SCORE.SYSTEM.VDW>
3.32744

>  <SCORE.SYSTEM.norm>
-0.211346

>  <SCORE.heavy>
29

>  <SCORE.norm>
-1.90162

$$$$
