F1673-3085
  rDOCK(R)          3D
libRbt.so/2013.1/901 2013/11/27
 23 24  0  0  0  0  0  0  0  0999 V2000
  -21.7928   26.1817   -9.4200 C   0  0  0  0  0  0
  -22.6581   25.1670   -9.9109 O   0  0  0  0  0  0
  -21.9737   24.4205  -10.8847 N   0  0  0  0  0  0
  -22.5271   23.2537  -10.9662 C   0  0  0  0  0  0
  -22.1240   22.1317  -11.8537 C   0  0  0  0  0  0
  -22.7646   20.9431  -11.9332 C   0  0  0  0  0  0
  -22.3289   19.9523  -12.7860 N   0  0  0  0  0  0
  -21.2921   20.1552  -13.5309 C   0  0  0  0  0  0
  -20.8707   19.0914  -14.4841 C   0  0  0  0  0  0
  -19.8068   19.2833  -15.2742 C   0  0  0  0  0  0
  -19.0477   20.5118  -15.2045 C   0  0  0  0  0  0
  -17.8682   20.6635  -16.1146 C   0  0  0  0  0  0
  -19.4283   21.4621  -14.3360 C   0  0  0  0  0  0
  -20.5359   21.3077  -13.5103 N   0  3  0  0  0  0
  -20.8843   22.3272  -12.6446 C   0  0  0  0  0  0
  -20.2391   23.3674  -12.5166 O   0  0  0  0  0  0
  -23.9485   20.6801  -11.2195 N   0  0  0  0  0  0
  -24.4544   21.5863  -10.1617 C   0  0  0  0  0  0
  -25.9399   21.9155  -10.3206 C   0  0  0  0  0  0
  -24.2100   20.9968   -8.7691 C   0  0  0  0  0  0
  -24.5248   19.3168  -11.3588 C   0  0  0  0  0  0
  -25.1302   19.0815  -12.7424 C   0  0  0  0  0  0
  -23.5496   18.1994  -10.9954 C   0  0  0  0  0  0
  1  2  1  0  0  0
  2  3  1  0  0  0
  3  4  2  0  0  0
  4  5  1  0  0  0
  5  6  2  0  0  0
  5 15  1  0  0  0
  6  7  1  0  0  0
  6 17  1  0  0  0
  7  8  2  0  0  0
  8  9  1  0  0  0
  8 14  1  0  0  0
  9 10  2  0  0  0
 10 11  1  0  0  0
 11 12  1  0  0  0
 11 13  2  0  0  0
 13 14  1  0  0  0
 14 15  1  0  0  0
 15 16  2  0  0  0
 17 18  1  0  0  0
 17 21  1  0  0  0
 18 19  1  0  0  0
 18 20  1  0  0  0
 21 22  1  0  0  0
 21 23  1  0  0  0
M  END
>  <CHROM.0>
-60.04725390,-76.07971983,72.39449895,-63.17167256,-31.97704416,-54.47924589
-156.36592998,-162.67865869

>  <CHROM.1>
156.60468670,-177.68565882,-10.59804991,131.52207464,-71.08323857,-22.12397136
21.44231222,-12.14997176,-2.45274379,-0.62128890,-2.63125024

>  <Name>
F1673-3085

>  <RI>
4.07985e+07

>  <Rbt.Current_Directory>
/home/adria/Escritorio/rDock_CMTR_LC/2pxcA_model/inputs_sah

>  <Rbt.Executable>
rbdock ($Id: //depot/dev/client3/rdock/2013.1/src/exe/rbdock.cxx#4 $)

>  <Rbt.Library>
libRbt.so (2013.1, Build901 2013/11/27)

>  <Rbt.Parameter_File>
/home/adria/Escritorio/rDock_2013.1_src/data/scripts/dock.prm

>  <Rbt.Receptor>
sah_rdock.prm

>  <SCORE>
-53.8769

>  <SCORE.INTER>
-2.72491

>  <SCORE.INTER.CONST>
1

>  <SCORE.INTER.POLAR>
0

>  <SCORE.INTER.REPUL>
0

>  <SCORE.INTER.ROT>
5

>  <SCORE.INTER.VDW>
-13.1249

>  <SCORE.INTER.norm>
-0.118474

>  <SCORE.INTRA>
-43.3468

>  <SCORE.INTRA.DIHEDRAL>
-99.1412

>  <SCORE.INTRA.DIHEDRAL.0>
107.147

>  <SCORE.INTRA.POLAR>
0

>  <SCORE.INTRA.POLAR.0>
0

>  <SCORE.INTRA.REPUL>
0

>  <SCORE.INTRA.REPUL.0>
0

>  <SCORE.INTRA.VDW>
6.22379

>  <SCORE.INTRA.VDW.0>
-2.46535

>  <SCORE.INTRA.norm>
-1.88464

>  <SCORE.RESTR>
0

>  <SCORE.RESTR.CAVITY>
0

>  <SCORE.RESTR.norm>
0

>  <SCORE.SYSTEM>
-7.80519

>  <SCORE.SYSTEM.CONST>
0

>  <SCORE.SYSTEM.DIHEDRAL>
6.55735

>  <SCORE.SYSTEM.POLAR>
-4.18059

>  <SCORE.SYSTEM.REPUL>
0.0435653

>  <SCORE.SYSTEM.VDW>
2.91232

>  <SCORE.SYSTEM.norm>
-0.339356

>  <SCORE.heavy>
23

>  <SCORE.norm>
-2.34247

$$$$
F1673-3085
  rDOCK(R)          3D
libRbt.so/2013.1/901 2013/11/27
 23 24  0  0  0  0  0  0  0  0999 V2000
  -23.8015   25.3871  -13.0006 C   0  0  0  0  0  0
  -22.9162   24.7475  -12.0915 O   0  0  0  0  0  0
  -22.0308   23.9341  -12.8185 N   0  0  0  0  0  0
  -22.3865   22.7004  -12.6575 C   0  0  0  0  0  0
  -21.7283   21.4970  -13.2299 C   0  0  0  0  0  0
  -22.2449   20.2474  -13.1985 C   0  0  0  0  0  0
  -21.5721   19.1819  -13.7562 N   0  0  0  0  0  0
  -20.4274   19.3715  -14.3261 C   0  0  0  0  0  0
  -19.7430   18.2159  -14.9695 C   0  0  0  0  0  0
  -18.5620   18.3902  -15.5760 C   0  0  0  0  0  0
  -17.9308   19.6907  -15.6031 C   0  0  0  0  0  0
  -16.6099   19.8182  -16.2969 C   0  0  0  0  0  0
  -18.5497   20.7254  -15.0126 C   0  0  0  0  0  0
  -19.7834   20.5889  -14.3867 N   0  3  0  0  0  0
  -20.3757   21.6945  -13.8061 C   0  0  0  0  0  0
  -19.8527   22.8077  -13.7619 O   0  0  0  0  0  0
  -23.5224   19.9770  -12.6741 N   0  0  0  0  0  0
  -24.3153   20.9992  -11.9513 C   0  0  0  0  0  0
  -25.7286   21.1632  -12.5136 C   0  0  0  0  0  0
  -24.3969   20.6762  -10.4561 C   0  0  0  0  0  0
  -23.9329   18.5494  -12.6149 C   0  0  0  0  0  0
  -24.1693   17.9557  -14.0035 C   0  0  0  0  0  0
  -22.9825   17.6717  -11.8036 C   0  0  0  0  0  0
  1  2  1  0  0  0
  2  3  1  0  0  0
  3  4  2  0  0  0
  4  5  1  0  0  0
  5  6  2  0  0  0
  5 15  1  0  0  0
  6  7  1  0  0  0
  6 17  1  0  0  0
  7  8  2  0  0  0
  8  9  1  0  0  0
  8 14  1  0  0  0
  9 10  2  0  0  0
 10 11  1  0  0  0
 11 12  1  0  0  0
 11 13  2  0  0  0
 13 14  1  0  0  0
 14 15  1  0  0  0
 15 16  2  0  0  0
 17 18  1  0  0  0
 17 21  1  0  0  0
 18 19  1  0  0  0
 18 20  1  0  0  0
 21 22  1  0  0  0
 21 23  1  0  0  0
M  END
>  <CHROM.0>
-179.56435737,-72.03660580,-47.00104558,64.42255673,167.81290671,-59.07518298
-36.19977451,-160.78219519

>  <CHROM.1>
-105.23545260,-169.73839910,-8.67063101,127.41937006,-69.13284448,-21.69732263
20.74970624,-13.46128070,-2.72555782,-0.47665518,-3.03517935

>  <Name>
F1673-3085

>  <RI>
4.07985e+07

>  <Rbt.Current_Directory>
/home/adria/Escritorio/rDock_CMTR_LC/2pxcA_model/inputs_sah

>  <Rbt.Executable>
rbdock ($Id: //depot/dev/client3/rdock/2013.1/src/exe/rbdock.cxx#4 $)

>  <Rbt.Library>
libRbt.so (2013.1, Build901 2013/11/27)

>  <Rbt.Parameter_File>
/home/adria/Escritorio/rDock_2013.1_src/data/scripts/dock.prm

>  <Rbt.Receptor>
sah_rdock.prm

>  <SCORE>
-48.6535

>  <SCORE.INTER>
-2.75396

>  <SCORE.INTER.CONST>
1

>  <SCORE.INTER.POLAR>
0

>  <SCORE.INTER.REPUL>
0

>  <SCORE.INTER.ROT>
5

>  <SCORE.INTER.VDW>
-13.154

>  <SCORE.INTER.norm>
-0.119737

>  <SCORE.INTRA>
-43.585

>  <SCORE.INTRA.DIHEDRAL>
-100.502

>  <SCORE.INTRA.DIHEDRAL.0>
107.147

>  <SCORE.INTRA.POLAR>
0

>  <SCORE.INTRA.POLAR.0>
0

>  <SCORE.INTRA.REPUL>
0

>  <SCORE.INTRA.REPUL.0>
0

>  <SCORE.INTRA.VDW>
6.66617

>  <SCORE.INTRA.VDW.0>
-2.46535

>  <SCORE.INTRA.norm>
-1.895

>  <SCORE.RESTR>
0

>  <SCORE.RESTR.CAVITY>
0

>  <SCORE.RESTR.norm>
0

>  <SCORE.SYSTEM>
-2.31456

>  <SCORE.SYSTEM.CONST>
0

>  <SCORE.SYSTEM.DIHEDRAL>
3.64645

>  <SCORE.SYSTEM.POLAR>
-3.91187

>  <SCORE.SYSTEM.REPUL>
0.0367699

>  <SCORE.SYSTEM.VDW>
8.97872

>  <SCORE.SYSTEM.norm>
-0.100633

>  <SCORE.heavy>
23

>  <SCORE.norm>
-2.11537

$$$$
F1673-3085
  rDOCK(R)          3D
libRbt.so/2013.1/901 2013/11/27
 23 24  0  0  0  0  0  0  0  0999 V2000
  -17.7743   20.2037  -15.5670 C   0  0  0  0  0  0
  -19.0521   20.7250  -15.9059 O   0  0  0  0  0  0
  -19.5158   21.5149  -14.8406 N   0  0  0  0  0  0
  -20.5112   20.9035  -14.2840 C   0  0  0  0  0  0
  -21.3194   21.3756  -13.1294 C   0  0  0  0  0  0
  -22.3295   20.6797  -12.5594 C   0  0  0  0  0  0
  -23.0301   21.1867  -11.4866 N   0  0  0  0  0  0
  -22.7203   22.3462  -11.0064 C   0  0  0  0  0  0
  -23.4546   22.8513   -9.8133 C   0  0  0  0  0  0
  -23.1434   24.0444   -9.2911 C   0  0  0  0  0  0
  -22.1069   24.8611   -9.8819 C   0  0  0  0  0  0
  -21.8081   26.1856   -9.2503 C   0  0  0  0  0  0
  -21.4561   24.4030  -10.9630 C   0  0  0  0  0  0
  -21.7385   23.1633  -11.5251 N   0  3  0  0  0  0
  -21.0258   22.7419  -12.6318 C   0  0  0  0  0  0
  -20.1711   23.4241  -13.1965 O   0  0  0  0  0  0
  -22.6676   19.3769  -12.9698 N   0  0  0  0  0  0
  -22.0325   18.7239  -14.1387 C   0  0  0  0  0  0
  -21.3254   17.4160  -13.7783 C   0  0  0  0  0  0
  -23.0578   18.4598  -15.2457 C   0  0  0  0  0  0
  -23.8903   18.7822  -12.3685 C   0  0  0  0  0  0
  -23.7064   18.4512  -10.8877 C   0  0  0  0  0  0
  -25.1490   19.6189  -12.5858 C   0  0  0  0  0  0
  1  2  1  0  0  0
  2  3  1  0  0  0
  3  4  2  0  0  0
  4  5  1  0  0  0
  5  6  2  0  0  0
  5 15  1  0  0  0
  6  7  1  0  0  0
  6 17  1  0  0  0
  7  8  2  0  0  0
  8  9  1  0  0  0
  8 14  1  0  0  0
  9 10  2  0  0  0
 10 11  1  0  0  0
 11 12  1  0  0  0
 11 13  2  0  0  0
 13 14  1  0  0  0
 14 15  1  0  0  0
 15 16  2  0  0  0
 17 18  1  0  0  0
 17 21  1  0  0  0
 18 19  1  0  0  0
 18 20  1  0  0  0
 21 22  1  0  0  0
 21 23  1  0  0  0
M  END
>  <CHROM.0>
-60.85963734,-72.37311577,-9.30446682,62.46886913,-29.58334985,-60.14555980
-36.43812326,-160.51378527

>  <CHROM.1>
-110.48391294,-178.05801639,-6.08454174,121.24213649,-70.06610074,-21.83454042
21.31294970,-12.55849499,-1.35530933,0.64154466,0.58140892

>  <Name>
F1673-3085

>  <RI>
4.07985e+07

>  <Rbt.Current_Directory>
/home/adria/Escritorio/rDock_CMTR_LC/2pxcA_model/inputs_sah

>  <Rbt.Executable>
rbdock ($Id: //depot/dev/client3/rdock/2013.1/src/exe/rbdock.cxx#4 $)

>  <Rbt.Library>
libRbt.so (2013.1, Build901 2013/11/27)

>  <Rbt.Parameter_File>
/home/adria/Escritorio/rDock_2013.1_src/data/scripts/dock.prm

>  <Rbt.Receptor>
sah_rdock.prm

>  <SCORE>
-55.7157

>  <SCORE.INTER>
-4.49614

>  <SCORE.INTER.CONST>
1

>  <SCORE.INTER.POLAR>
0

>  <SCORE.INTER.REPUL>
0.0325924

>  <SCORE.INTER.ROT>
5

>  <SCORE.INTER.VDW>
-15.0591

>  <SCORE.INTER.norm>
-0.195484

>  <SCORE.INTRA>
-43.7763

>  <SCORE.INTRA.DIHEDRAL>
-101.002

>  <SCORE.INTRA.DIHEDRAL.0>
107.147

>  <SCORE.INTRA.POLAR>
0

>  <SCORE.INTRA.POLAR.0>
0

>  <SCORE.INTRA.REPUL>
0

>  <SCORE.INTRA.REPUL.0>
0

>  <SCORE.INTRA.VDW>
6.72475

>  <SCORE.INTRA.VDW.0>
-2.46535

>  <SCORE.INTRA.norm>
-1.90332

>  <SCORE.RESTR>
0

>  <SCORE.RESTR.CAVITY>
0

>  <SCORE.RESTR.norm>
0

>  <SCORE.SYSTEM>
-7.4432

>  <SCORE.SYSTEM.CONST>
0

>  <SCORE.SYSTEM.DIHEDRAL>
9.57117

>  <SCORE.SYSTEM.POLAR>
-4.64047

>  <SCORE.SYSTEM.REPUL>
0.0373969

>  <SCORE.SYSTEM.VDW>
3.36183

>  <SCORE.SYSTEM.norm>
-0.323617

>  <SCORE.heavy>
23

>  <SCORE.norm>
-2.42242

$$$$
F1673-3085
  rDOCK(R)          3D
libRbt.so/2013.1/901 2013/11/27
 23 24  0  0  0  0  0  0  0  0999 V2000
  -21.9180   26.6533   -9.6561 C   0  0  0  0  0  0
  -22.0126   26.4425  -11.0582 O   0  0  0  0  0  0
  -21.3229   25.2633  -11.3863 N   0  0  0  0  0  0
  -22.1361   24.2657  -11.2524 C   0  0  0  0  0  0
  -21.8342   22.8280  -11.4782 C   0  0  0  0  0  0
  -22.4950   21.8009  -10.8971 C   0  0  0  0  0  0
  -22.1556   20.4919  -11.1618 N   0  0  0  0  0  0
  -21.1920   20.2310  -11.9830 C   0  0  0  0  0  0
  -20.8774   18.8095  -12.2961 C   0  0  0  0  0  0
  -19.8912   18.5149  -13.1526 C   0  0  0  0  0  0
  -19.1128   19.5644  -13.7714 C   0  0  0  0  0  0
  -18.0235   19.1679  -14.7194 C   0  0  0  0  0  0
  -19.3964   20.8431  -13.4768 C   0  0  0  0  0  0
  -20.4222   21.1905  -12.6053 N   0  3  0  0  0  0
  -20.6731   22.5256  -12.3506 C   0  0  0  0  0  0
  -20.0050   23.4489  -12.8154 O   0  0  0  0  0  0
  -23.6088   22.0030  -10.0612 N   0  0  0  0  0  0
  -23.9964   23.3454   -9.5675 C   0  0  0  0  0  0
  -25.4295   23.7267   -9.9431 C   0  0  0  0  0  0
  -23.8253   23.4434   -8.0484 C   0  0  0  0  0  0
  -24.2173   20.7907   -9.4527 C   0  0  0  0  0  0
  -24.8069   19.8486  -10.5020 C   0  0  0  0  0  0
  -23.2766   20.0382   -8.5143 C   0  0  0  0  0  0
  1  2  1  0  0  0
  2  3  1  0  0  0
  3  4  2  0  0  0
  4  5  1  0  0  0
  5  6  2  0  0  0
  5 15  1  0  0  0
  6  7  1  0  0  0
  6 17  1  0  0  0
  7  8  2  0  0  0
  8  9  1  0  0  0
  8 14  1  0  0  0
  9 10  2  0  0  0
 10 11  1  0  0  0
 11 12  1  0  0  0
 11 13  2  0  0  0
 13 14  1  0  0  0
 14 15  1  0  0  0
 15 16  2  0  0  0
 17 18  1  0  0  0
 17 21  1  0  0  0
 18 19  1  0  0  0
 18 20  1  0  0  0
 21 22  1  0  0  0
 21 23  1  0  0  0
M  END
>  <CHROM.0>
-60.73244487,66.44285356,-42.59499554,64.78280473,-31.22703503,-55.30433473
-156.11597613,-50.03589247

>  <CHROM.1>
86.99026797,154.83547789,-10.86005660,122.95040227,-64.03342399,-21.88968338
22.04239119,-11.26875507,-2.37360194,-0.68778662,-3.03524260

>  <Name>
F1673-3085

>  <RI>
4.07985e+07

>  <Rbt.Current_Directory>
/home/adria/Escritorio/rDock_CMTR_LC/2pxcA_model/inputs_sah

>  <Rbt.Executable>
rbdock ($Id: //depot/dev/client3/rdock/2013.1/src/exe/rbdock.cxx#4 $)

>  <Rbt.Library>
libRbt.so (2013.1, Build901 2013/11/27)

>  <Rbt.Parameter_File>
/home/adria/Escritorio/rDock_2013.1_src/data/scripts/dock.prm

>  <Rbt.Receptor>
sah_rdock.prm

>  <SCORE>
-54.2696

>  <SCORE.INTER>
-7.28732

>  <SCORE.INTER.CONST>
1

>  <SCORE.INTER.POLAR>
-0.477699

>  <SCORE.INTER.REPUL>
0.0601566

>  <SCORE.INTER.ROT>
5

>  <SCORE.INTER.VDW>
-16.3639

>  <SCORE.INTER.norm>
-0.31684

>  <SCORE.INTRA>
-41.8159

>  <SCORE.INTRA.DIHEDRAL>
-99.1277

>  <SCORE.INTRA.DIHEDRAL.0>
107.147

>  <SCORE.INTRA.POLAR>
0

>  <SCORE.INTRA.POLAR.0>
0

>  <SCORE.INTRA.REPUL>
0

>  <SCORE.INTRA.REPUL.0>
0

>  <SCORE.INTRA.VDW>
7.74794

>  <SCORE.INTRA.VDW.0>
-2.46535

>  <SCORE.INTRA.norm>
-1.81808

>  <SCORE.RESTR>
0

>  <SCORE.RESTR.CAVITY>
0

>  <SCORE.RESTR.norm>
0

>  <SCORE.SYSTEM>
-5.16639

>  <SCORE.SYSTEM.CONST>
0

>  <SCORE.SYSTEM.DIHEDRAL>
8.48915

>  <SCORE.SYSTEM.POLAR>
-3.40555

>  <SCORE.SYSTEM.REPUL>
0.0116697

>  <SCORE.SYSTEM.VDW>
2.10956

>  <SCORE.SYSTEM.norm>
-0.224626

>  <SCORE.heavy>
23

>  <SCORE.norm>
-2.35955

$$$$
F1673-3085
  rDOCK(R)          3D
libRbt.so/2013.1/901 2013/11/27
 23 24  0  0  0  0  0  0  0  0999 V2000
  -22.6325   17.4552  -13.0348 C   0  0  0  0  0  0
  -23.4225   18.6115  -13.2760 O   0  0  0  0  0  0
  -22.7411   19.7364  -12.7819 N   0  0  0  0  0  0
  -23.5538   20.4069  -12.0306 C   0  0  0  0  0  0
  -23.2675   21.6754  -11.3111 C   0  0  0  0  0  0
  -24.1639   22.3550  -10.5599 C   0  0  0  0  0  0
  -23.8185   23.5255   -9.9201 N   0  0  0  0  0  0
  -22.6165   23.9880  -10.0303 C   0  0  0  0  0  0
  -22.2497   25.2252   -9.2871 C   0  0  0  0  0  0
  -21.0073   25.7166   -9.3766 C   0  0  0  0  0  0
  -20.0139   25.0664  -10.2015 C   0  0  0  0  0  0
  -18.6434   25.6672  -10.2592 C   0  0  0  0  0  0
  -20.3550   23.9569  -10.8760 C   0  0  0  0  0  0
  -21.6290   23.4065  -10.7969 N   0  3  0  0  0  0
  -21.9163   22.2556  -11.5063 C   0  0  0  0  0  0
  -21.1179   21.6976  -12.2586 O   0  0  0  0  0  0
  -25.4635   21.8705  -10.3222 N   0  0  0  0  0  0
  -26.0066   20.6818  -11.0208 C   0  0  0  0  0  0
  -26.6067   19.6511  -10.0627 C   0  0  0  0  0  0
  -27.0591   21.0861  -12.0577 C   0  0  0  0  0  0
  -26.3799   22.7593   -9.5604 C   0  0  0  0  0  0
  -25.9579   22.9123   -8.0993 C   0  0  0  0  0  0
  -26.5902   24.1247  -10.2108 C   0  0  0  0  0  0
  1  2  1  0  0  0
  2  3  1  0  0  0
  3  4  2  0  0  0
  4  5  1  0  0  0
  5  6  2  0  0  0
  5 15  1  0  0  0
  6  7  1  0  0  0
  6 17  1  0  0  0
  7  8  2  0  0  0
  8  9  1  0  0  0
  8 14  1  0  0  0
  9 10  2  0  0  0
 10 11  1  0  0  0
 11 12  1  0  0  0
 11 13  2  0  0  0
 13 14  1  0  0  0
 14 15  1  0  0  0
 15 16  2  0  0  0
 17 18  1  0  0  0
 17 21  1  0  0  0
 18 19  1  0  0  0
 18 20  1  0  0  0
 21 22  1  0  0  0
 21 23  1  0  0  0
M  END
>  <CHROM.0>
38.81313368,66.16634223,108.20362360,63.15816674,-30.54911174,-59.93669912
-156.49167984,-164.86183786

>  <CHROM.1>
-129.44132121,178.42530866,-8.51100301,129.20030205,-68.80447831,-23.39942676
22.26510541,-10.85153861,-2.34127068,0.26225716,0.53409475

>  <Name>
F1673-3085

>  <RI>
4.07985e+07

>  <Rbt.Current_Directory>
/home/adria/Escritorio/rDock_CMTR_LC/2pxcA_model/inputs_sah

>  <Rbt.Executable>
rbdock ($Id: //depot/dev/client3/rdock/2013.1/src/exe/rbdock.cxx#4 $)

>  <Rbt.Library>
libRbt.so (2013.1, Build901 2013/11/27)

>  <Rbt.Parameter_File>
/home/adria/Escritorio/rDock_2013.1_src/data/scripts/dock.prm

>  <Rbt.Receptor>
sah_rdock.prm

>  <SCORE>
-51.7729

>  <SCORE.INTER>
-5.10919

>  <SCORE.INTER.CONST>
1

>  <SCORE.INTER.POLAR>
0

>  <SCORE.INTER.REPUL>
0

>  <SCORE.INTER.ROT>
5

>  <SCORE.INTER.VDW>
-15.5092

>  <SCORE.INTER.norm>
-0.222139

>  <SCORE.INTRA>
-43.8124

>  <SCORE.INTRA.DIHEDRAL>
-100.24

>  <SCORE.INTRA.DIHEDRAL.0>
107.147

>  <SCORE.INTRA.POLAR>
0

>  <SCORE.INTRA.POLAR.0>
0

>  <SCORE.INTRA.REPUL>
0

>  <SCORE.INTRA.REPUL.0>
0

>  <SCORE.INTRA.VDW>
6.30778

>  <SCORE.INTRA.VDW.0>
-2.46535

>  <SCORE.INTRA.norm>
-1.90489

>  <SCORE.RESTR>
0

>  <SCORE.RESTR.CAVITY>
0

>  <SCORE.RESTR.norm>
0

>  <SCORE.SYSTEM>
-2.8513

>  <SCORE.SYSTEM.CONST>
0

>  <SCORE.SYSTEM.DIHEDRAL>
10.5234

>  <SCORE.SYSTEM.POLAR>
-4.24493

>  <SCORE.SYSTEM.REPUL>
0.126968

>  <SCORE.SYSTEM.VDW>
5.68494

>  <SCORE.SYSTEM.norm>
-0.12397

>  <SCORE.heavy>
23

>  <SCORE.norm>
-2.251

$$$$
F1673-3085
  rDOCK(R)          3D
libRbt.so/2013.1/901 2013/11/27
 23 24  0  0  0  0  0  0  0  0999 V2000
  -21.9360   26.6091   -9.7878 C   0  0  0  0  0  0
  -22.1131   26.3709  -11.1775 O   0  0  0  0  0  0
  -21.3727   25.2332  -11.5397 N   0  0  0  0  0  0
  -22.1090   24.1880  -11.3398 C   0  0  0  0  0  0
  -21.7311   22.7692  -11.5706 C   0  0  0  0  0  0
  -22.3107   21.7084  -10.9639 C   0  0  0  0  0  0
  -21.9043   20.4201  -11.2353 N   0  0  0  0  0  0
  -20.9551   20.2114  -12.0878 C   0  0  0  0  0  0
  -20.5685   18.8090  -12.4063 C   0  0  0  0  0  0
  -19.5961   18.5679  -13.2947 C   0  0  0  0  0  0
  -18.9018   19.6577  -13.9432 C   0  0  0  0  0  0
  -17.8236   19.3203  -14.9261 C   0  0  0  0  0  0
  -19.2497   20.9192  -13.6436 C   0  0  0  0  0  0
  -20.2642   21.2109  -12.7392 N   0  3  0  0  0  0
  -20.5842   22.5304  -12.4808 C   0  0  0  0  0  0
  -19.9874   23.4886  -12.9711 O   0  0  0  0  0  0
  -23.4057   21.8497  -10.0915 N   0  0  0  0  0  0
  -24.0512   20.6885   -9.4349 C   0  0  0  0  0  0
  -24.4432   19.5883  -10.4230 C   0  0  0  0  0  0
  -23.1472   20.0981   -8.3484 C   0  0  0  0  0  0
  -24.0800   23.1744  -10.0731 C   0  0  0  0  0  0
  -25.3612   23.1849  -10.9066 C   0  0  0  0  0  0
  -24.3424   23.7089   -8.6670 C   0  0  0  0  0  0
  1  2  1  0  0  0
  2  3  1  0  0  0
  3  4  2  0  0  0
  4  5  1  0  0  0
  5  6  2  0  0  0
  5 15  1  0  0  0
  6  7  1  0  0  0
  6 17  1  0  0  0
  7  8  2  0  0  0
  8  9  1  0  0  0
  8 14  1  0  0  0
  9 10  2  0  0  0
 10 11  1  0  0  0
 11 12  1  0  0  0
 11 13  2  0  0  0
 13 14  1  0  0  0
 14 15  1  0  0  0
 15 16  2  0  0  0
 17 18  1  0  0  0
 17 21  1  0  0  0
 18 19  1  0  0  0
 18 20  1  0  0  0
 21 22  1  0  0  0
 21 23  1  0  0  0
M  END
>  <CHROM.0>
-60.29744170,-73.23250731,-129.15453514,65.77150617,-30.34878692,-177.15693750
83.68601170,-160.41088748

>  <CHROM.1>
87.05980954,156.89994729,179.41245309,-51.80000084,100.04375584,-21.79151476
22.00097829,-11.44201506,-2.44587506,-0.68237379,-3.09317468

>  <Name>
F1673-3085

>  <RI>
4.07985e+07

>  <Rbt.Current_Directory>
/home/adria/Escritorio/rDock_CMTR_LC/2pxcA_model/inputs_sah

>  <Rbt.Executable>
rbdock ($Id: //depot/dev/client3/rdock/2013.1/src/exe/rbdock.cxx#4 $)

>  <Rbt.Library>
libRbt.so (2013.1, Build901 2013/11/27)

>  <Rbt.Parameter_File>
/home/adria/Escritorio/rDock_2013.1_src/data/scripts/dock.prm

>  <Rbt.Receptor>
sah_rdock.prm

>  <SCORE>
-53.5569

>  <SCORE.INTER>
-7.01511

>  <SCORE.INTER.CONST>
1

>  <SCORE.INTER.POLAR>
-0.331216

>  <SCORE.INTER.REPUL>
0.0546492

>  <SCORE.INTER.ROT>
5

>  <SCORE.INTER.VDW>
-16.5622

>  <SCORE.INTER.norm>
-0.305005

>  <SCORE.INTRA>
-39.4536

>  <SCORE.INTRA.DIHEDRAL>
-97.4741

>  <SCORE.INTRA.DIHEDRAL.0>
107.147

>  <SCORE.INTRA.POLAR>
0

>  <SCORE.INTRA.POLAR.0>
0

>  <SCORE.INTRA.REPUL>
0

>  <SCORE.INTRA.REPUL.0>
0

>  <SCORE.INTRA.VDW>
9.28341

>  <SCORE.INTRA.VDW.0>
-2.46535

>  <SCORE.INTRA.norm>
-1.71538

>  <SCORE.RESTR>
0

>  <SCORE.RESTR.CAVITY>
0

>  <SCORE.RESTR.norm>
0

>  <SCORE.SYSTEM>
-7.08814

>  <SCORE.SYSTEM.CONST>
0

>  <SCORE.SYSTEM.DIHEDRAL>
9.70047

>  <SCORE.SYSTEM.POLAR>
-4.55068

>  <SCORE.SYSTEM.REPUL>
0.0389481

>  <SCORE.SYSTEM.VDW>
3.33919

>  <SCORE.SYSTEM.norm>
-0.30818

>  <SCORE.heavy>
23

>  <SCORE.norm>
-2.32856

$$$$
F1673-3085
  rDOCK(R)          3D
libRbt.so/2013.1/901 2013/11/27
 23 24  0  0  0  0  0  0  0  0999 V2000
  -15.7203   19.7362  -16.4613 C   0  0  0  0  0  0
  -16.9502   20.1196  -17.0611 O   0  0  0  0  0  0
  -17.6861   20.8812  -16.1378 N   0  0  0  0  0  0
  -18.6669   20.1575  -15.7034 C   0  0  0  0  0  0
  -19.7106   20.5589  -14.7244 C   0  0  0  0  0  0
  -20.6622   19.7343  -14.2304 C   0  0  0  0  0  0
  -21.5948   20.1836  -13.3208 N   0  0  0  0  0  0
  -21.5646   21.4132  -12.9231 C   0  0  0  0  0  0
  -22.5479   21.8634  -11.8994 C   0  0  0  0  0  0
  -22.5286   23.1294  -11.4635 C   0  0  0  0  0  0
  -21.5688   24.0757  -11.9867 C   0  0  0  0  0  0
  -21.6006   25.4764  -11.4581 C   0  0  0  0  0  0
  -20.6918   23.6645  -12.9163 C   0  0  0  0  0  0
  -20.6691   22.3552  -13.3828 N   0  3  0  0  0  0
  -19.7342   21.9895  -14.3328 C   0  0  0  0  0  0
  -18.9324   22.7724  -14.8415 O   0  0  0  0  0  0
  -20.7062   18.3643  -14.5485 N   0  0  0  0  0  0
  -19.7770   17.7467  -15.5238 C   0  0  0  0  0  0
  -19.1761   16.4320  -15.0230 C   0  0  0  0  0  0
  -20.4695   17.5097  -16.8694 C   0  0  0  0  0  0
  -21.9026   17.6095  -14.0917 C   0  0  0  0  0  0
  -22.0044   17.5506  -12.5677 C   0  0  0  0  0  0
  -23.2105   18.1048  -14.7046 C   0  0  0  0  0  0
  1  2  1  0  0  0
  2  3  1  0  0  0
  3  4  2  0  0  0
  4  5  1  0  0  0
  5  6  2  0  0  0
  5 15  1  0  0  0
  6  7  1  0  0  0
  6 17  1  0  0  0
  7  8  2  0  0  0
  8  9  1  0  0  0
  8 14  1  0  0  0
  9 10  2  0  0  0
 10 11  1  0  0  0
 11 12  1  0  0  0
 11 13  2  0  0  0
 13 14  1  0  0  0
 14 15  1  0  0  0
 15 16  2  0  0  0
 17 18  1  0  0  0
 17 21  1  0  0  0
 18 19  1  0  0  0
 18 20  1  0  0  0
 21 22  1  0  0  0
 21 23  1  0  0  0
M  END
>  <CHROM.0>
-59.73400337,65.14812611,-10.68793934,64.93370666,168.34172070,-58.99499991
-156.99823562,-162.61662874

>  <CHROM.1>
-106.95842490,-175.10896472,-4.63790513,134.17030771,-64.42470906,-20.29911405
20.44523630,-14.23816416,-1.08753812,0.58201129,0.34134876

>  <Name>
F1673-3085

>  <RI>
4.07985e+07

>  <Rbt.Current_Directory>
/home/adria/Escritorio/rDock_CMTR_LC/2pxcA_model/inputs_sah

>  <Rbt.Executable>
rbdock ($Id: //depot/dev/client3/rdock/2013.1/src/exe/rbdock.cxx#4 $)

>  <Rbt.Library>
libRbt.so (2013.1, Build901 2013/11/27)

>  <Rbt.Parameter_File>
/home/adria/Escritorio/rDock_2013.1_src/data/scripts/dock.prm

>  <Rbt.Receptor>
sah_rdock.prm

>  <SCORE>
-53.897

>  <SCORE.INTER>
-8.58913

>  <SCORE.INTER.CONST>
1

>  <SCORE.INTER.POLAR>
-0.833952

>  <SCORE.INTER.REPUL>
0

>  <SCORE.INTER.ROT>
5

>  <SCORE.INTER.VDW>
-16.1537

>  <SCORE.INTER.norm>
-0.37344

>  <SCORE.INTRA>
-43.0491

>  <SCORE.INTRA.DIHEDRAL>
-99.9931

>  <SCORE.INTRA.DIHEDRAL.0>
107.147

>  <SCORE.INTRA.POLAR>
0

>  <SCORE.INTRA.POLAR.0>
0

>  <SCORE.INTRA.REPUL>
0

>  <SCORE.INTRA.REPUL.0>
0

>  <SCORE.INTRA.VDW>
6.94744

>  <SCORE.INTRA.VDW.0>
-2.46535

>  <SCORE.INTRA.norm>
-1.8717

>  <SCORE.RESTR>
0

>  <SCORE.RESTR.CAVITY>
0

>  <SCORE.RESTR.norm>
0

>  <SCORE.SYSTEM>
-2.2588

>  <SCORE.SYSTEM.CONST>
0

>  <SCORE.SYSTEM.DIHEDRAL>
5.81162

>  <SCORE.SYSTEM.POLAR>
-4.23288

>  <SCORE.SYSTEM.VDW>
9.22719

>  <SCORE.SYSTEM.norm>
-0.0982085

>  <SCORE.heavy>
23

>  <SCORE.norm>
-2.34335

$$$$
F1673-3085
  rDOCK(R)          3D
libRbt.so/2013.1/901 2013/11/27
 23 24  0  0  0  0  0  0  0  0999 V2000
  -22.1061   25.8586  -11.8954 C   0  0  0  0  0  0
  -22.5877   25.2849  -13.1030 O   0  0  0  0  0  0
  -21.8056   24.1596  -13.4129 N   0  0  0  0  0  0
  -22.4346   23.1033  -13.0090 C   0  0  0  0  0  0
  -21.9765   21.6934  -13.1149 C   0  0  0  0  0  0
  -22.6305   20.6292  -12.5959 C   0  0  0  0  0  0
  -22.1405   19.3494  -12.7404 N   0  0  0  0  0  0
  -21.0383   19.1521  -13.3864 C   0  0  0  0  0  0
  -20.5551   17.7565  -13.5771 C   0  0  0  0  0  0
  -19.4221   17.5265  -14.2527 C   0  0  0  0  0  0
  -18.6485   18.6227  -14.7915 C   0  0  0  0  0  0
  -17.3906   18.2979  -15.5362 C   0  0  0  0  0  0
  -19.0858   19.8785  -14.6072 C   0  0  0  0  0  0
  -20.2647   20.1578  -13.9256 N   0  3  0  0  0  0
  -20.6684   21.4714  -13.7783 C   0  0  0  0  0  0
  -20.0170   22.4368  -14.1763 O   0  0  0  0  0  0
  -23.8776   20.7544  -11.9562 N   0  0  0  0  0  0
  -24.6480   19.5798  -11.4842 C   0  0  0  0  0  0
  -24.8950   18.5481  -12.5864 C   0  0  0  0  0  0
  -23.9492   18.9030  -10.3009 C   0  0  0  0  0  0
  -24.5347   22.0861  -12.0262 C   0  0  0  0  0  0
  -25.7847   22.0706  -12.9057 C   0  0  0  0  0  0
  -24.8406   22.6911  -10.6580 C   0  0  0  0  0  0
  1  2  1  0  0  0
  2  3  1  0  0  0
  3  4  2  0  0  0
  4  5  1  0  0  0
  5  6  2  0  0  0
  5 15  1  0  0  0
  6  7  1  0  0  0
  6 17  1  0  0  0
  7  8  2  0  0  0
  8  9  1  0  0  0
  8 14  1  0  0  0
  9 10  2  0  0  0
 10 11  1  0  0  0
 11 12  1  0  0  0
 11 13  2  0  0  0
 13 14  1  0  0  0
 14 15  1  0  0  0
 15 16  2  0  0  0
 17 18  1  0  0  0
 17 21  1  0  0  0
 18 19  1  0  0  0
 18 20  1  0  0  0
 21 22  1  0  0  0
 21 23  1  0  0  0
M  END
>  <CHROM.0>
179.28022146,-72.39017668,-45.80826016,64.77809462,-30.36025926,-59.64828814
83.36204628,-160.76327464

>  <CHROM.1>
98.17481334,175.29825578,174.93061671,-54.44987786,110.66571370,-22.01883295
20.94555211,-13.01118727,-2.47295359,-0.48296702,3.13080573

>  <Name>
F1673-3085

>  <RI>
4.07985e+07

>  <Rbt.Current_Directory>
/home/adria/Escritorio/rDock_CMTR_LC/2pxcA_model/inputs_sah

>  <Rbt.Executable>
rbdock ($Id: //depot/dev/client3/rdock/2013.1/src/exe/rbdock.cxx#4 $)

>  <Rbt.Library>
libRbt.so (2013.1, Build901 2013/11/27)

>  <Rbt.Parameter_File>
/home/adria/Escritorio/rDock_2013.1_src/data/scripts/dock.prm

>  <Rbt.Receptor>
sah_rdock.prm

>  <SCORE>
-54.3484

>  <SCORE.INTER>
-6.02561

>  <SCORE.INTER.CONST>
1

>  <SCORE.INTER.POLAR>
-0.890298

>  <SCORE.INTER.REPUL>
0.00784165

>  <SCORE.INTER.ROT>
5

>  <SCORE.INTER.VDW>
-13.4378

>  <SCORE.INTER.norm>
-0.261983

>  <SCORE.INTRA>
-41.2207

>  <SCORE.INTRA.DIHEDRAL>
-100.542

>  <SCORE.INTRA.DIHEDRAL.0>
107.147

>  <SCORE.INTRA.POLAR>
0

>  <SCORE.INTRA.POLAR.0>
0

>  <SCORE.INTRA.REPUL>
0

>  <SCORE.INTRA.REPUL.0>
0

>  <SCORE.INTRA.VDW>
9.05026

>  <SCORE.INTRA.VDW.0>
-2.46535

>  <SCORE.INTRA.norm>
-1.79221

>  <SCORE.RESTR>
0

>  <SCORE.RESTR.CAVITY>
0

>  <SCORE.RESTR.norm>
0

>  <SCORE.SYSTEM>
-7.10205

>  <SCORE.SYSTEM.CONST>
0

>  <SCORE.SYSTEM.DIHEDRAL>
6.56102

>  <SCORE.SYSTEM.POLAR>
-3.96694

>  <SCORE.SYSTEM.REPUL>
0.0374284

>  <SCORE.SYSTEM.VDW>
2.91791

>  <SCORE.SYSTEM.norm>
-0.308785

>  <SCORE.heavy>
23

>  <SCORE.norm>
-2.36297

$$$$
F1673-3085
  rDOCK(R)          3D
libRbt.so/2013.1/901 2013/11/27
 23 24  0  0  0  0  0  0  0  0999 V2000
  -21.3665   25.7418  -10.1824 C   0  0  0  0  0  0
  -22.7842   25.7857  -10.0953 O   0  0  0  0  0  0
  -23.3271   25.2065  -11.2545 N   0  0  0  0  0  0
  -23.8961   24.0922  -10.9243 C   0  0  0  0  0  0
  -24.5872   23.1372  -11.8296 C   0  0  0  0  0  0
  -25.1032   21.9472  -11.4461 C   0  0  0  0  0  0
  -25.7338   21.1180  -12.3481 N   0  0  0  0  0  0
  -25.8429   21.4777  -13.5849 C   0  0  0  0  0  0
  -26.5752   20.5911  -14.5310 C   0  0  0  0  0  0
  -26.7112   20.9482  -15.8144 C   0  0  0  0  0  0
  -26.1409   22.1844  -16.3010 C   0  0  0  0  0  0
  -26.3277   22.5251  -17.7472 C   0  0  0  0  0  0
  -25.4740   22.9737  -15.4440 C   0  0  0  0  0  0
  -25.3248   22.6463  -14.1012 N   0  3  0  0  0  0
  -24.6368   23.5058  -13.2657 C   0  0  0  0  0  0
  -24.0931   24.5422  -13.6465 O   0  0  0  0  0  0
  -25.1003   21.5263  -10.1034 N   0  0  0  0  0  0
  -24.4035   22.2832   -9.0368 C   0  0  0  0  0  0
  -25.3674   22.9503   -8.0538 C   0  0  0  0  0  0
  -23.4338   21.3818   -8.2662 C   0  0  0  0  0  0
  -25.5752   20.1434   -9.8348 C   0  0  0  0  0  0
  -27.0747   19.9860  -10.0857 C   0  0  0  0  0  0
  -24.7844   19.0689  -10.5776 C   0  0  0  0  0  0
  1  2  1  0  0  0
  2  3  1  0  0  0
  3  4  2  0  0  0
  4  5  1  0  0  0
  5  6  2  0  0  0
  5 15  1  0  0  0
  6  7  1  0  0  0
  6 17  1  0  0  0
  7  8  2  0  0  0
  8  9  1  0  0  0
  8 14  1  0  0  0
  9 10  2  0  0  0
 10 11  1  0  0  0
 11 12  1  0  0  0
 11 13  2  0  0  0
 13 14  1  0  0  0
 14 15  1  0  0  0
 15 16  2  0  0  0
 17 18  1  0  0  0
 17 21  1  0  0  0
 18 19  1  0  0  0
 18 20  1  0  0  0
 21 22  1  0  0  0
 21 23  1  0  0  0
M  END
>  <CHROM.0>
179.06278106,-68.92373130,-12.23144578,62.49947681,-30.89328209,-57.34340074
-158.53909239,-163.57654263

>  <CHROM.1>
111.29624615,176.15948493,-6.83922223,110.55261936,-68.80540306,-24.89933690
22.45974532,-12.03314847,-0.90612161,-0.99590339,-1.17134875

>  <Name>
F1673-3085

>  <RI>
4.07985e+07

>  <Rbt.Current_Directory>
/home/adria/Escritorio/rDock_CMTR_LC/2pxcA_model/inputs_sah

>  <Rbt.Executable>
rbdock ($Id: //depot/dev/client3/rdock/2013.1/src/exe/rbdock.cxx#4 $)

>  <Rbt.Library>
libRbt.so (2013.1, Build901 2013/11/27)

>  <Rbt.Parameter_File>
/home/adria/Escritorio/rDock_2013.1_src/data/scripts/dock.prm

>  <Rbt.Receptor>
sah_rdock.prm

>  <SCORE>
-53.8776

>  <SCORE.INTER>
-3.52155

>  <SCORE.INTER.CONST>
1

>  <SCORE.INTER.POLAR>
-0.935086

>  <SCORE.INTER.REPUL>
0

>  <SCORE.INTER.ROT>
5

>  <SCORE.INTER.VDW>
-10.7423

>  <SCORE.INTER.norm>
-0.153111

>  <SCORE.INTRA>
-43.5042

>  <SCORE.INTRA.DIHEDRAL>
-101.417

>  <SCORE.INTRA.DIHEDRAL.0>
107.147

>  <SCORE.INTRA.POLAR>
0

>  <SCORE.INTRA.POLAR.0>
0

>  <SCORE.INTRA.REPUL>
0

>  <SCORE.INTRA.REPUL.0>
0

>  <SCORE.INTRA.VDW>
7.20421

>  <SCORE.INTRA.VDW.0>
-2.46535

>  <SCORE.INTRA.norm>
-1.89149

>  <SCORE.RESTR>
0.181522

>  <SCORE.RESTR.CAVITY>
0.181522

>  <SCORE.RESTR.norm>
0.00789228

>  <SCORE.SYSTEM>
-7.03328

>  <SCORE.SYSTEM.CONST>
0

>  <SCORE.SYSTEM.DIHEDRAL>
8.51901

>  <SCORE.SYSTEM.POLAR>
-4.46375

>  <SCORE.SYSTEM.REPUL>
0.030459

>  <SCORE.SYSTEM.VDW>
3.73169

>  <SCORE.SYSTEM.norm>
-0.305795

>  <SCORE.heavy>
23

>  <SCORE.norm>
-2.3425

$$$$
F1673-3085
  rDOCK(R)          3D
libRbt.so/2013.1/901 2013/11/27
 23 24  0  0  0  0  0  0  0  0999 V2000
  -17.0613   11.7663  -15.9971 C   0  0  0  0  0  0
  -16.4870   13.0262  -15.6771 O   0  0  0  0  0  0
  -17.4772   13.8431  -15.1061 N   0  0  0  0  0  0
  -17.3802   15.0239  -15.6262 C   0  0  0  0  0  0
  -18.2139   16.2129  -15.3096 C   0  0  0  0  0  0
  -18.0178   17.4501  -15.8198 C   0  0  0  0  0  0
  -18.8393   18.5023  -15.4781 N   0  0  0  0  0  0
  -19.8210   18.3119  -14.6589 C   0  0  0  0  0  0
  -20.7286   19.4501  -14.3454 C   0  0  0  0  0  0
  -21.7591   19.2741  -13.5086 C   0  0  0  0  0  0
  -21.9964   17.9890  -12.8900 C   0  0  0  0  0  0
  -23.1654   17.8585  -11.9633 C   0  0  0  0  0  0
  -21.1681   16.9703  -13.1704 C   0  0  0  0  0  0
  -20.0971   17.1084  -14.0458 N   0  3  0  0  0  0
  -19.2863   16.0191  -14.3030 C   0  0  0  0  0  0
  -19.4210   14.9220  -13.7617 O   0  0  0  0  0  0
  -17.0261   17.7159  -16.7820 N   0  0  0  0  0  0
  -16.8720   19.0469  -17.4150 C   0  0  0  0  0  0
  -18.1964   19.6226  -17.9200 C   0  0  0  0  0  0
  -16.2191   20.0423  -16.4510 C   0  0  0  0  0  0
  -16.3202   16.5409  -17.3574 C   0  0  0  0  0  0
  -16.8962   16.1234  -18.7103 C   0  0  0  0  0  0
  -14.8058   16.7173  -17.4430 C   0  0  0  0  0  0
  1  2  1  0  0  0
  2  3  1  0  0  0
  3  4  2  0  0  0
  4  5  1  0  0  0
  5  6  2  0  0  0
  5 15  1  0  0  0
  6  7  1  0  0  0
  6 17  1  0  0  0
  7  8  2  0  0  0
  8  9  1  0  0  0
  8 14  1  0  0  0
  9 10  2  0  0  0
 10 11  1  0  0  0
 11 12  1  0  0  0
 11 13  2  0  0  0
 13 14  1  0  0  0
 14 15  1  0  0  0
 15 16  2  0  0  0
 17 18  1  0  0  0
 17 21  1  0  0  0
 18 19  1  0  0  0
 18 20  1  0  0  0
 21 22  1  0  0  0
 21 23  1  0  0  0
M  END
>  <CHROM.0>
-63.46090565,-168.10232895,-45.26236677,65.66936027,-31.23807232,179.99004294
-155.92210339,-166.64377418

>  <CHROM.1>
-136.10004347,175.56493545,175.48342618,-47.93329267,98.15703205,-18.51511324
16.87791566,-15.41923184,0.23750915,-0.68522677,2.87875999

>  <Name>
F1673-3085

>  <RI>
4.07985e+07

>  <Rbt.Current_Directory>
/home/adria/Escritorio/rDock_CMTR_LC/2pxcA_model/inputs_sah

>  <Rbt.Executable>
rbdock ($Id: //depot/dev/client3/rdock/2013.1/src/exe/rbdock.cxx#4 $)

>  <Rbt.Library>
libRbt.so (2013.1, Build901 2013/11/27)

>  <Rbt.Parameter_File>
/home/adria/Escritorio/rDock_2013.1_src/data/scripts/dock.prm

>  <Rbt.Receptor>
sah_rdock.prm

>  <SCORE>
-50.7766

>  <SCORE.INTER>
-3.32568

>  <SCORE.INTER.CONST>
1

>  <SCORE.INTER.POLAR>
0

>  <SCORE.INTER.REPUL>
0

>  <SCORE.INTER.ROT>
5

>  <SCORE.INTER.VDW>
-13.7257

>  <SCORE.INTER.norm>
-0.144595

>  <SCORE.INTRA>
-40.931

>  <SCORE.INTRA.DIHEDRAL>
-99.2959

>  <SCORE.INTRA.DIHEDRAL.0>
107.147

>  <SCORE.INTRA.POLAR>
0

>  <SCORE.INTRA.POLAR.0>
0

>  <SCORE.INTRA.REPUL>
0

>  <SCORE.INTRA.REPUL.0>
0

>  <SCORE.INTRA.VDW>
8.71697

>  <SCORE.INTRA.VDW.0>
-2.46535

>  <SCORE.INTRA.norm>
-1.77961

>  <SCORE.RESTR>
0

>  <SCORE.RESTR.CAVITY>
0

>  <SCORE.RESTR.norm>
0

>  <SCORE.SYSTEM>
-6.51998

>  <SCORE.SYSTEM.CONST>
0

>  <SCORE.SYSTEM.DIHEDRAL>
6.27606

>  <SCORE.SYSTEM.POLAR>
-3.74374

>  <SCORE.SYSTEM.VDW>
3.07071

>  <SCORE.SYSTEM.norm>
-0.283477

>  <SCORE.heavy>
23

>  <SCORE.norm>
-2.20768

$$$$
F1673-3085
  rDOCK(R)          3D
libRbt.so/2013.1/901 2013/11/27
 23 24  0  0  0  0  0  0  0  0999 V2000
  -24.8937   19.2096   -8.1823 C   0  0  0  0  0  0
  -25.3261   19.7809   -9.4095 O   0  0  0  0  0  0
  -24.2677   19.7264  -10.3319 N   0  0  0  0  0  0
  -23.9199   20.9381  -10.6240 C   0  0  0  0  0  0
  -22.8531   21.3601  -11.5689 C   0  0  0  0  0  0
  -22.4134   22.6305  -11.7179 C   0  0  0  0  0  0
  -21.4151   22.9404  -12.6158 N   0  0  0  0  0  0
  -20.8799   22.0054  -13.3302 C   0  0  0  0  0  0
  -19.7659   22.3539  -14.2550 C   0  0  0  0  0  0
  -19.1881   21.4004  -14.9965 C   0  0  0  0  0  0
  -19.6430   20.0300  -14.9218 C   0  0  0  0  0  0
  -18.9551   19.0119  -15.7778 C   0  0  0  0  0  0
  -20.6540   19.7256  -14.0928 C   0  0  0  0  0  0
  -21.2693   20.6834  -13.2949 N   0  3  0  0  0  0
  -22.2980   20.3058  -12.4528 C   0  0  0  0  0  0
  -22.7501   19.1626  -12.3935 O   0  0  0  0  0  0
  -22.8853   23.6862  -10.9161 N   0  0  0  0  0  0
  -22.2492   25.0246  -10.9126 C   0  0  0  0  0  0
  -20.7544   24.9723  -10.5915 C   0  0  0  0  0  0
  -22.4571   25.7361  -12.2532 C   0  0  0  0  0  0
  -23.8655   23.3341   -9.8553 C   0  0  0  0  0  0
  -23.3246   23.6067   -8.4520 C   0  0  0  0  0  0
  -25.2341   23.9841  -10.0456 C   0  0  0  0  0  0
  1  2  1  0  0  0
  2  3  1  0  0  0
  3  4  2  0  0  0
  4  5  1  0  0  0
  5  6  2  0  0  0
  5 15  1  0  0  0
  6  7  1  0  0  0
  6 17  1  0  0  0
  7  8  2  0  0  0
  8  9  1  0  0  0
  8 14  1  0  0  0
  9 10  2  0  0  0
 10 11  1  0  0  0
 11 12  1  0  0  0
 11 13  2  0  0  0
 13 14  1  0  0  0
 14 15  1  0  0  0
 15 16  2  0  0  0
 17 18  1  0  0  0
 17 21  1  0  0  0
 18 19  1  0  0  0
 18 20  1  0  0  0
 21 22  1  0  0  0
 21 23  1  0  0  0
M  END
>  <CHROM.0>
177.83284067,-73.65547005,110.74422209,63.76264989,-30.67866926,179.64388243
81.97709106,-164.28730762

>  <CHROM.1>
-115.59898385,-171.34091143,169.31430599,-55.40558089,116.40770527,-22.28982203
21.80917680,-11.79751466,2.69911474,0.80947353,0.22990484

>  <Name>
F1673-3085

>  <RI>
4.07985e+07

>  <Rbt.Current_Directory>
/home/adria/Escritorio/rDock_CMTR_LC/2pxcA_model/inputs_sah

>  <Rbt.Executable>
rbdock ($Id: //depot/dev/client3/rdock/2013.1/src/exe/rbdock.cxx#4 $)

>  <Rbt.Library>
libRbt.so (2013.1, Build901 2013/11/27)

>  <Rbt.Parameter_File>
/home/adria/Escritorio/rDock_2013.1_src/data/scripts/dock.prm

>  <Rbt.Receptor>
sah_rdock.prm

>  <SCORE>
-53.9689

>  <SCORE.INTER>
-5.83429

>  <SCORE.INTER.CONST>
1

>  <SCORE.INTER.POLAR>
0

>  <SCORE.INTER.REPUL>
0.0196649

>  <SCORE.INTER.ROT>
5

>  <SCORE.INTER.VDW>
-16.3326

>  <SCORE.INTER.norm>
-0.253665

>  <SCORE.INTRA>
-41.1805

>  <SCORE.INTRA.DIHEDRAL>
-100.165

>  <SCORE.INTRA.DIHEDRAL.0>
107.147

>  <SCORE.INTRA.POLAR>
0

>  <SCORE.INTRA.POLAR.0>
0

>  <SCORE.INTRA.REPUL>
0

>  <SCORE.INTRA.REPUL.0>
0

>  <SCORE.INTRA.VDW>
8.90219

>  <SCORE.INTRA.VDW.0>
-2.46535

>  <SCORE.INTRA.norm>
-1.79046

>  <SCORE.RESTR>
0

>  <SCORE.RESTR.CAVITY>
0

>  <SCORE.RESTR.norm>
0

>  <SCORE.SYSTEM>
-6.9541

>  <SCORE.SYSTEM.CONST>
0

>  <SCORE.SYSTEM.DIHEDRAL>
9.25752

>  <SCORE.SYSTEM.POLAR>
-4.53755

>  <SCORE.SYSTEM.REPUL>
0.039685

>  <SCORE.SYSTEM.VDW>
3.64638

>  <SCORE.SYSTEM.norm>
-0.302352

>  <SCORE.heavy>
23

>  <SCORE.norm>
-2.34647

$$$$
F1673-3085
  rDOCK(R)          3D
libRbt.so/2013.1/901 2013/11/27
 23 24  0  0  0  0  0  0  0  0999 V2000
  -17.7457   13.2866  -13.6159 C   0  0  0  0  0  0
  -18.8577   13.8136  -14.3265 O   0  0  0  0  0  0
  -19.1846   15.0696  -13.7886 N   0  0  0  0  0  0
  -18.9824   15.9671  -14.6986 C   0  0  0  0  0  0
  -19.1808   17.4343  -14.5687 C   0  0  0  0  0  0
  -18.6093   18.3634  -15.3686 C   0  0  0  0  0  0
  -18.8470   19.7082  -15.1845 N   0  0  0  0  0  0
  -19.6328   20.0982  -14.2351 C   0  0  0  0  0  0
  -19.9182   21.5523  -14.0880 C   0  0  0  0  0  0
  -20.7382   21.9792  -13.1193 C   0  0  0  0  0  0
  -21.3437   21.0429  -12.1989 C   0  0  0  0  0  0
  -22.2505   21.5849  -11.1376 C   0  0  0  0  0  0
  -21.0740   19.7345  -12.3323 C   0  0  0  0  0  0
  -20.2410   19.2502  -13.3342 N   0  3  0  0  0  0
  -20.0108   17.8905  -13.4270 C   0  0  0  0  0  0
  -20.4644   17.0636  -12.6364 O   0  0  0  0  0  0
  -17.8130   18.0131  -16.4746 N   0  0  0  0  0  0
  -17.2800   16.6436  -16.6658 C   0  0  0  0  0  0
  -17.5687   16.0819  -18.0592 C   0  0  0  0  0  0
  -15.7719   16.5984  -16.4013 C   0  0  0  0  0  0
  -17.2819   19.1314  -17.2976 C   0  0  0  0  0  0
  -18.3929   19.9210  -17.9895 C   0  0  0  0  0  0
  -16.3476   20.0655  -16.5320 C   0  0  0  0  0  0
  1  2  1  0  0  0
  2  3  1  0  0  0
  3  4  2  0  0  0
  4  5  1  0  0  0
  5  6  2  0  0  0
  5 15  1  0  0  0
  6  7  1  0  0  0
  6 17  1  0  0  0
  7  8  2  0  0  0
  8  9  1  0  0  0
  8 14  1  0  0  0
  9 10  2  0  0  0
 10 11  1  0  0  0
 11 12  1  0  0  0
 11 13  2  0  0  0
 13 14  1  0  0  0
 14 15  1  0  0  0
 15 16  2  0  0  0
 17 18  1  0  0  0
 17 21  1  0  0  0
 18 19  1  0  0  0
 18 20  1  0  0  0
 21 22  1  0  0  0
 21 23  1  0  0  0
M  END
>  <CHROM.0>
-176.42746465,-168.86586519,-44.19703164,-143.63605112,168.15991638,-177.72592866
-35.82892914,-164.53393934

>  <CHROM.1>
115.38732089,159.65222451,-14.66946769,129.24833616,-64.56184307,-18.98504588
18.19250117,-14.69854131,0.62059179,-0.91674824,2.87700792

>  <Name>
F1673-3085

>  <RI>
4.07985e+07

>  <Rbt.Current_Directory>
/home/adria/Escritorio/rDock_CMTR_LC/2pxcA_model/inputs_sah

>  <Rbt.Executable>
rbdock ($Id: //depot/dev/client3/rdock/2013.1/src/exe/rbdock.cxx#4 $)

>  <Rbt.Library>
libRbt.so (2013.1, Build901 2013/11/27)

>  <Rbt.Parameter_File>
/home/adria/Escritorio/rDock_2013.1_src/data/scripts/dock.prm

>  <Rbt.Receptor>
sah_rdock.prm

>  <SCORE>
-48.0529

>  <SCORE.INTER>
-7.52905

>  <SCORE.INTER.CONST>
1

>  <SCORE.INTER.POLAR>
-0.311124

>  <SCORE.INTER.REPUL>
0

>  <SCORE.INTER.ROT>
5

>  <SCORE.INTER.VDW>
-16.8712

>  <SCORE.INTER.norm>
-0.32735

>  <SCORE.INTRA>
-42.9766

>  <SCORE.INTRA.DIHEDRAL>
-98.1878

>  <SCORE.INTRA.DIHEDRAL.0>
107.147

>  <SCORE.INTRA.POLAR>
0

>  <SCORE.INTRA.POLAR.0>
0

>  <SCORE.INTRA.REPUL>
0

>  <SCORE.INTRA.REPUL.0>
0

>  <SCORE.INTRA.VDW>
6.11728

>  <SCORE.INTRA.VDW.0>
-2.46535

>  <SCORE.INTRA.norm>
-1.86855

>  <SCORE.RESTR>
0

>  <SCORE.RESTR.CAVITY>
0

>  <SCORE.RESTR.norm>
0

>  <SCORE.SYSTEM>
2.45275

>  <SCORE.SYSTEM.CONST>
0

>  <SCORE.SYSTEM.DIHEDRAL>
8.30008

>  <SCORE.SYSTEM.POLAR>
-3.59241

>  <SCORE.SYSTEM.VDW>
10.5169

>  <SCORE.SYSTEM.norm>
0.106641

>  <SCORE.heavy>
23

>  <SCORE.norm>
-2.08926

$$$$
F1673-3085
  rDOCK(R)          3D
libRbt.so/2013.1/901 2013/11/27
 23 24  0  0  0  0  0  0  0  0999 V2000
  -22.0861   25.7993  -11.8646 C   0  0  0  0  0  0
  -22.7392   24.9216  -12.7714 O   0  0  0  0  0  0
  -21.7950   24.0166  -13.2847 N   0  0  0  0  0  0
  -22.2138   22.8149  -13.0501 C   0  0  0  0  0  0
  -21.5295   21.5435  -13.4027 C   0  0  0  0  0  0
  -22.0222   20.3084  -13.1553 C   0  0  0  0  0  0
  -21.3260   19.1757  -13.5174 N   0  0  0  0  0  0
  -20.1820   19.2859  -14.1090 C   0  0  0  0  0  0
  -19.4719   18.0498  -14.5399 C   0  0  0  0  0  0
  -18.2911   18.1393  -15.1649 C   0  0  0  0  0  0
  -17.6848   19.4274  -15.4166 C   0  0  0  0  0  0
  -16.3627   19.4585  -16.1191 C   0  0  0  0  0  0
  -18.3267   20.5366  -15.0167 C   0  0  0  0  0  0
  -19.5611   20.4868  -14.3793 N   0  3  0  0  0  0
  -20.1777   21.6646  -14.0015 C   0  0  0  0  0  0
  -19.6763   22.7786  -14.1507 O   0  0  0  0  0  0
  -23.2972   20.1082  -12.5946 N   0  0  0  0  0  0
  -23.8903   18.7595  -12.4352 C   0  0  0  0  0  0
  -23.9438   17.9742  -13.7470 C   0  0  0  0  0  0
  -23.1293   17.9445  -11.3849 C   0  0  0  0  0  0
  -24.1530   21.3127  -12.4312 C   0  0  0  0  0  0
  -25.3617   21.2968  -13.3666 C   0  0  0  0  0  0
  -24.5856   21.5659  -10.9889 C   0  0  0  0  0  0
  1  2  1  0  0  0
  2  3  1  0  0  0
  3  4  2  0  0  0
  4  5  1  0  0  0
  5  6  2  0  0  0
  5 15  1  0  0  0
  6  7  1  0  0  0
  6 17  1  0  0  0
  7  8  2  0  0  0
  8  9  1  0  0  0
  8 14  1  0  0  0
  9 10  2  0  0  0
 10 11  1  0  0  0
 11 12  1  0  0  0
 11 13  2  0  0  0
 13 14  1  0  0  0
 14 15  1  0  0  0
 15 16  2  0  0  0
 17 18  1  0  0  0
 17 21  1  0  0  0
 18 19  1  0  0  0
 18 20  1  0  0  0
 21 22  1  0  0  0
 21 23  1  0  0  0
M  END
>  <CHROM.0>
-60.97857119,-73.82414314,-46.95834128,64.86233686,168.04065863,-58.76123223
82.63463483,-160.39773296

>  <CHROM.1>
124.21582645,-178.77308891,174.33975257,-55.12917343,111.54153475,-21.44365031
20.81767906,-13.48398544,-2.64061287,-0.43149601,-3.04352249

>  <Name>
F1673-3085

>  <RI>
4.07985e+07

>  <Rbt.Current_Directory>
/home/adria/Escritorio/rDock_CMTR_LC/2pxcA_model/inputs_sah

>  <Rbt.Executable>
rbdock ($Id: //depot/dev/client3/rdock/2013.1/src/exe/rbdock.cxx#4 $)

>  <Rbt.Library>
libRbt.so (2013.1, Build901 2013/11/27)

>  <Rbt.Parameter_File>
/home/adria/Escritorio/rDock_2013.1_src/data/scripts/dock.prm

>  <Rbt.Receptor>
sah_rdock.prm

>  <SCORE>
-48.2989

>  <SCORE.INTER>
-4.05801

>  <SCORE.INTER.CONST>
1

>  <SCORE.INTER.POLAR>
0

>  <SCORE.INTER.REPUL>
0.0181638

>  <SCORE.INTER.ROT>
5

>  <SCORE.INTER.VDW>
-14.5488

>  <SCORE.INTER.norm>
-0.176435

>  <SCORE.INTRA>
-41.6101

>  <SCORE.INTRA.DIHEDRAL>
-100.052

>  <SCORE.INTRA.DIHEDRAL.0>
107.147

>  <SCORE.INTRA.POLAR>
0

>  <SCORE.INTRA.POLAR.0>
0

>  <SCORE.INTRA.REPUL>
0

>  <SCORE.INTRA.REPUL.0>
0

>  <SCORE.INTRA.VDW>
8.41587

>  <SCORE.INTRA.VDW.0>
-2.46535

>  <SCORE.INTRA.norm>
-1.80914

>  <SCORE.RESTR>
0

>  <SCORE.RESTR.CAVITY>
0

>  <SCORE.RESTR.norm>
0

>  <SCORE.SYSTEM>
-2.6308

>  <SCORE.SYSTEM.CONST>
0

>  <SCORE.SYSTEM.DIHEDRAL>
3.7773

>  <SCORE.SYSTEM.POLAR>
-3.91804

>  <SCORE.SYSTEM.REPUL>
0.0399739

>  <SCORE.SYSTEM.VDW>
8.60202

>  <SCORE.SYSTEM.norm>
-0.114383

>  <SCORE.heavy>
23

>  <SCORE.norm>
-2.09995

$$$$
F1673-3085
  rDOCK(R)          3D
libRbt.so/2013.1/901 2013/11/27
 23 24  0  0  0  0  0  0  0  0999 V2000
  -23.8833   26.2282  -12.9325 C   0  0  0  0  0  0
  -22.8635   26.0067  -11.9680 O   0  0  0  0  0  0
  -22.0912   24.9043  -12.3709 N   0  0  0  0  0  0
  -22.4892   23.8654  -11.7100 C   0  0  0  0  0  0
  -21.9470   22.4846  -11.8013 C   0  0  0  0  0  0
  -22.3451   21.4474  -11.0297 C   0  0  0  0  0  0
  -21.7940   20.1933  -11.1788 N   0  0  0  0  0  0
  -20.8823   19.9937  -12.0732 C   0  0  0  0  0  0
  -20.3391   18.6190  -12.2539 C   0  0  0  0  0  0
  -19.4024   18.3857  -13.1819 C   0  0  0  0  0  0
  -18.8973   19.4599  -14.0072 C   0  0  0  0  0  0
  -17.8496   19.1326  -15.0259 C   0  0  0  0  0  0
  -19.3852   20.6982  -13.8318 C   0  0  0  0  0  0
  -20.3691   20.9782  -12.8905 N   0  3  0  0  0  0
  -20.8394   22.2718  -12.7649 C   0  0  0  0  0  0
  -20.4037   23.2247  -13.4105 O   0  0  0  0  0  0
  -23.3912   21.5656  -10.0961 N   0  0  0  0  0  0
  -23.8743   20.4149   -9.2969 C   0  0  0  0  0  0
  -24.1203   19.1643  -10.1428 C   0  0  0  0  0  0
  -22.8958   20.0805   -8.1668 C   0  0  0  0  0  0
  -24.1922   22.8171  -10.1436 C   0  0  0  0  0  0
  -25.6107   22.5787  -10.6606 C   0  0  0  0  0  0
  -24.2172   23.5790   -8.8205 C   0  0  0  0  0  0
  1  2  1  0  0  0
  2  3  1  0  0  0
  3  4  2  0  0  0
  4  5  1  0  0  0
  5  6  2  0  0  0
  5 15  1  0  0  0
  6  7  1  0  0  0
  6 17  1  0  0  0
  7  8  2  0  0  0
  8  9  1  0  0  0
  8 14  1  0  0  0
  9 10  2  0  0  0
 10 11  1  0  0  0
 11 12  1  0  0  0
 11 13  2  0  0  0
 13 14  1  0  0  0
 14 15  1  0  0  0
 15 16  2  0  0  0
 17 18  1  0  0  0
 17 21  1  0  0  0
 18 19  1  0  0  0
 18 20  1  0  0  0
 21 22  1  0  0  0
 21 23  1  0  0  0
M  END
>  <CHROM.0>
-176.97909351,-167.66667673,-5.28067572,65.33898744,-28.96827360,-57.11371081
83.65756791,-157.08984470

>  <CHROM.1>
-99.59614494,175.84411039,176.92309850,-47.67531096,109.92958817,-21.97122868
21.72880647,-11.70641595,-2.73124771,-0.74529356,2.75892725

>  <Name>
F1673-3085

>  <RI>
4.07985e+07

>  <Rbt.Current_Directory>
/home/adria/Escritorio/rDock_CMTR_LC/2pxcA_model/inputs_sah

>  <Rbt.Executable>
rbdock ($Id: //depot/dev/client3/rdock/2013.1/src/exe/rbdock.cxx#4 $)

>  <Rbt.Library>
libRbt.so (2013.1, Build901 2013/11/27)

>  <Rbt.Parameter_File>
/home/adria/Escritorio/rDock_2013.1_src/data/scripts/dock.prm

>  <Rbt.Receptor>
sah_rdock.prm

>  <SCORE>
-52.8214

>  <SCORE.INTER>
-6.51415

>  <SCORE.INTER.CONST>
1

>  <SCORE.INTER.POLAR>
-0.87178

>  <SCORE.INTER.REPUL>
0

>  <SCORE.INTER.ROT>
5

>  <SCORE.INTER.VDW>
-13.9501

>  <SCORE.INTER.norm>
-0.283224

>  <SCORE.INTRA>
-40.8569

>  <SCORE.INTRA.DIHEDRAL>
-100.317

>  <SCORE.INTRA.DIHEDRAL.0>
107.147

>  <SCORE.INTRA.POLAR>
0

>  <SCORE.INTRA.POLAR.0>
0

>  <SCORE.INTRA.REPUL>
0

>  <SCORE.INTRA.REPUL.0>
0

>  <SCORE.INTRA.VDW>
9.30172

>  <SCORE.INTRA.VDW.0>
-2.46535

>  <SCORE.INTRA.norm>
-1.77638

>  <SCORE.RESTR>
0

>  <SCORE.RESTR.CAVITY>
0

>  <SCORE.RESTR.norm>
0

>  <SCORE.SYSTEM>
-5.45039

>  <SCORE.SYSTEM.CONST>
0

>  <SCORE.SYSTEM.DIHEDRAL>
10.1971

>  <SCORE.SYSTEM.POLAR>
-4.26633

>  <SCORE.SYSTEM.VDW>
3.95658

>  <SCORE.SYSTEM.norm>
-0.236973

>  <SCORE.heavy>
23

>  <SCORE.norm>
-2.29658

$$$$
F1673-3085
  rDOCK(R)          3D
libRbt.so/2013.1/901 2013/11/27
 23 24  0  0  0  0  0  0  0  0999 V2000
  -22.0465   25.9999  -11.9453 C   0  0  0  0  0  0
  -22.6988   25.4152  -13.0643 O   0  0  0  0  0  0
  -22.1650   24.1338  -13.2807 N   0  0  0  0  0  0
  -22.8754   23.2797  -12.6171 C   0  0  0  0  0  0
  -22.6676   21.8101  -12.5403 C   0  0  0  0  0  0
  -23.3442   20.9777  -11.7164 C   0  0  0  0  0  0
  -23.0946   19.6225  -11.7075 N   0  0  0  0  0  0
  -22.2021   19.1280  -12.5011 C   0  0  0  0  0  0
  -21.9864   17.6545  -12.5136 C   0  0  0  0  0  0
  -21.0756   17.1180  -13.3355 C   0  0  0  0  0  0
  -20.2831   17.9562  -14.2071 C   0  0  0  0  0  0
  -19.2810   17.2939  -15.1013 C   0  0  0  0  0  0
  -20.4768   19.2845  -14.1831 C   0  0  0  0  0  0
  -21.4232   19.8783  -13.3561 N   0  3  0  0  0  0
  -21.5839   21.2508  -13.3850 C   0  0  0  0  0  0
  -20.8982   22.0063  -14.0733 O   0  0  0  0  0  0
  -24.3886   21.4282  -10.8880 N   0  0  0  0  0  0
  -24.7053   22.8664  -10.7226 C   0  0  0  0  0  0
  -26.1782   23.1855  -10.9853 C   0  0  0  0  0  0
  -24.3199   23.3573   -9.3237 C   0  0  0  0  0  0
  -24.9813   20.4321   -9.9571 C   0  0  0  0  0  0
  -25.7581   19.3407  -10.6932 C   0  0  0  0  0  0
  -23.9707   19.8208   -8.9893 C   0  0  0  0  0  0
  1  2  1  0  0  0
  2  3  1  0  0  0
  3  4  2  0  0  0
  4  5  1  0  0  0
  5  6  2  0  0  0
  5 15  1  0  0  0
  6  7  1  0  0  0
  6 17  1  0  0  0
  7  8  2  0  0  0
  8  9  1  0  0  0
  8 14  1  0  0  0
  9 10  2  0  0  0
 10 11  1  0  0  0
 11 12  1  0  0  0
 11 13  2  0  0  0
 13 14  1  0  0  0
 14 15  1  0  0  0
 15 16  2  0  0  0
 17 18  1  0  0  0
 17 21  1  0  0  0
 18 19  1  0  0  0
 18 20  1  0  0  0
 21 22  1  0  0  0
 21 23  1  0  0  0
M  END
>  <CHROM.0>
177.34364046,-73.43236909,75.35142603,63.74727280,-31.04667249,-59.91511359
-156.90608375,-49.73659221

>  <CHROM.1>
91.17158790,172.23002999,-8.25767036,127.34941452,-68.28214643,-22.74139356
21.09574278,-12.19723584,-2.29584722,-0.74798467,3.06414692

>  <Name>
F1673-3085

>  <RI>
4.07985e+07

>  <Rbt.Current_Directory>
/home/adria/Escritorio/rDock_CMTR_LC/2pxcA_model/inputs_sah

>  <Rbt.Executable>
rbdock ($Id: //depot/dev/client3/rdock/2013.1/src/exe/rbdock.cxx#4 $)

>  <Rbt.Library>
libRbt.so (2013.1, Build901 2013/11/27)

>  <Rbt.Parameter_File>
/home/adria/Escritorio/rDock_2013.1_src/data/scripts/dock.prm

>  <Rbt.Receptor>
sah_rdock.prm

>  <SCORE>
-54.7443

>  <SCORE.INTER>
-6.24454

>  <SCORE.INTER.CONST>
1

>  <SCORE.INTER.POLAR>
-0.894427

>  <SCORE.INTER.REPUL>
0

>  <SCORE.INTER.ROT>
5

>  <SCORE.INTER.VDW>
-13.6035

>  <SCORE.INTER.norm>
-0.271502

>  <SCORE.INTRA>
-43.0499

>  <SCORE.INTRA.DIHEDRAL>
-100.98

>  <SCORE.INTRA.DIHEDRAL.0>
107.147

>  <SCORE.INTRA.POLAR>
0

>  <SCORE.INTRA.POLAR.0>
0

>  <SCORE.INTRA.REPUL>
0

>  <SCORE.INTRA.REPUL.0>
0

>  <SCORE.INTRA.VDW>
7.43998

>  <SCORE.INTRA.VDW.0>
-2.46535

>  <SCORE.INTRA.norm>
-1.87174

>  <SCORE.RESTR>
0

>  <SCORE.RESTR.CAVITY>
0

>  <SCORE.RESTR.norm>
0

>  <SCORE.SYSTEM>
-5.44977

>  <SCORE.SYSTEM.CONST>
0

>  <SCORE.SYSTEM.DIHEDRAL>
8.86785

>  <SCORE.SYSTEM.POLAR>
-3.74709

>  <SCORE.SYSTEM.REPUL>
0.0517333

>  <SCORE.SYSTEM.VDW>
2.59775

>  <SCORE.SYSTEM.norm>
-0.236947

>  <SCORE.heavy>
23

>  <SCORE.norm>
-2.38019

$$$$
F1673-3085
  rDOCK(R)          3D
libRbt.so/2013.1/901 2013/11/27
 23 24  0  0  0  0  0  0  0  0999 V2000
  -17.7167   13.2480  -13.6576 C   0  0  0  0  0  0
  -18.8781   13.7781  -14.2818 O   0  0  0  0  0  0
  -19.1392   15.0504  -13.7461 N   0  0  0  0  0  0
  -19.0040   15.9249  -14.6903 C   0  0  0  0  0  0
  -19.1695   17.3976  -14.5770 C   0  0  0  0  0  0
  -18.5851   18.3041  -15.3931 C   0  0  0  0  0  0
  -18.7920   19.6559  -15.2237 N   0  0  0  0  0  0
  -19.5610   20.0745  -14.2727 C   0  0  0  0  0  0
  -19.8136   21.5362  -14.1411 C   0  0  0  0  0  0
  -20.6157   21.9925  -13.1709 C   0  0  0  0  0  0
  -21.2333   21.0809  -12.2340 C   0  0  0  0  0  0
  -22.1189   21.6554  -11.1719 C   0  0  0  0  0  0
  -20.9931   19.7655  -12.3533 C   0  0  0  0  0  0
  -20.1795   19.2510  -13.3562 N   0  3  0  0  0  0
  -19.9795   17.8856  -13.4340 C   0  0  0  0  0  0
  -20.4441   17.0784  -12.6295 O   0  0  0  0  0  0
  -17.8062   17.9232  -16.5014 N   0  0  0  0  0  0
  -17.3185   16.5364  -16.6885 C   0  0  0  0  0  0
  -17.7429   15.9321  -18.0283 C   0  0  0  0  0  0
  -15.7937   16.4673  -16.5593 C   0  0  0  0  0  0
  -17.2437   19.0199  -17.3325 C   0  0  0  0  0  0
  -18.3328   19.8542  -18.0064 C   0  0  0  0  0  0
  -16.2604   19.9149  -16.5817 C   0  0  0  0  0  0
  1  2  1  0  0  0
  2  3  1  0  0  0
  3  4  2  0  0  0
  4  5  1  0  0  0
  5  6  2  0  0  0
  5 15  1  0  0  0
  6  7  1  0  0  0
  6 17  1  0  0  0
  7  8  2  0  0  0
  8  9  1  0  0  0
  8 14  1  0  0  0
  9 10  2  0  0  0
 10 11  1  0  0  0
 11 12  1  0  0  0
 11 13  2  0  0  0
 13 14  1  0  0  0
 14 15  1  0  0  0
 15 16  2  0  0  0
 17 18  1  0  0  0
 17 21  1  0  0  0
 18 19  1  0  0  0
 18 20  1  0  0  0
 21 22  1  0  0  0
 21 23  1  0  0  0
M  END
>  <CHROM.0>
-58.60467639,-169.74222130,72.81831346,62.99266268,168.73012262,59.48795755
83.54284425,-161.76879706

>  <CHROM.1>
115.43007104,155.12151246,-13.90363347,123.98625001,-63.72696949,-18.95105829
18.14933607,-14.72222964,0.64850273,-0.93083864,2.88689403

>  <Name>
F1673-3085

>  <RI>
4.07985e+07

>  <Rbt.Current_Directory>
/home/adria/Escritorio/rDock_CMTR_LC/2pxcA_model/inputs_sah

>  <Rbt.Executable>
rbdock ($Id: //depot/dev/client3/rdock/2013.1/src/exe/rbdock.cxx#4 $)

>  <Rbt.Library>
libRbt.so (2013.1, Build901 2013/11/27)

>  <Rbt.Parameter_File>
/home/adria/Escritorio/rDock_2013.1_src/data/scripts/dock.prm

>  <Rbt.Receptor>
sah_rdock.prm

>  <SCORE>
-52.1216

>  <SCORE.INTER>
-7.7419

>  <SCORE.INTER.CONST>
1

>  <SCORE.INTER.POLAR>
-0.307007

>  <SCORE.INTER.REPUL>
0

>  <SCORE.INTER.ROT>
5

>  <SCORE.INTER.VDW>
-17.0981

>  <SCORE.INTER.norm>
-0.336604

>  <SCORE.INTRA>
-42.7702

>  <SCORE.INTRA.DIHEDRAL>
-98.0368

>  <SCORE.INTRA.DIHEDRAL.0>
107.147

>  <SCORE.INTRA.POLAR>
0

>  <SCORE.INTRA.POLAR.0>
0

>  <SCORE.INTRA.REPUL>
0

>  <SCORE.INTRA.REPUL.0>
0

>  <SCORE.INTRA.VDW>
6.24823

>  <SCORE.INTRA.VDW.0>
-2.46535

>  <SCORE.INTRA.norm>
-1.85957

>  <SCORE.RESTR>
0

>  <SCORE.RESTR.CAVITY>
0

>  <SCORE.RESTR.norm>
0

>  <SCORE.SYSTEM>
-1.60947

>  <SCORE.SYSTEM.CONST>
0

>  <SCORE.SYSTEM.DIHEDRAL>
3.2334

>  <SCORE.SYSTEM.POLAR>
-3.65804

>  <SCORE.SYSTEM.VDW>
9.21118

>  <SCORE.SYSTEM.norm>
-0.0699769

>  <SCORE.heavy>
23

>  <SCORE.norm>
-2.26615

$$$$
F1673-3085
  rDOCK(R)          3D
libRbt.so/2013.1/901 2013/11/27
 23 24  0  0  0  0  0  0  0  0999 V2000
  -21.4986   26.1044   -9.4623 C   0  0  0  0  0  0
  -22.2666   25.9448  -10.6472 O   0  0  0  0  0  0
  -21.6385   24.9940  -11.4690 N   0  0  0  0  0  0
  -22.3709   23.9274  -11.4903 C   0  0  0  0  0  0
  -22.0893   22.6624  -12.2180 C   0  0  0  0  0  0
  -22.8403   21.5407  -12.1334 C   0  0  0  0  0  0
  -22.5132   20.4066  -12.8445 N   0  0  0  0  0  0
  -21.4738   20.4069  -13.6129 C   0  0  0  0  0  0
  -21.1695   19.1887  -14.4136 C   0  0  0  0  0  0
  -20.1047   19.1696  -15.2253 C   0  0  0  0  0  0
  -19.2322   20.3181  -15.3255 C   0  0  0  0  0  0
  -18.0580   20.2319  -16.2509 C   0  0  0  0  0  0
  -19.5078   21.4090  -14.5934 C   0  0  0  0  0  0
  -20.6120   21.4741  -13.7514 N   0  3  0  0  0  0
  -20.8492   22.6299  -13.0315 C   0  0  0  0  0  0
  -20.1069   23.6115  -13.0479 O   0  0  0  0  0  0
  -24.0323   21.4908  -11.3874 N   0  0  0  0  0  0
  -24.4670   22.6049  -10.5121 C   0  0  0  0  0  0
  -25.8832   23.0908  -10.8263 C   0  0  0  0  0  0
  -24.3807   22.2095   -9.0347 C   0  0  0  0  0  0
  -24.6994   20.1666  -11.2797 C   0  0  0  0  0  0
  -25.2984   19.7091  -12.6095 C   0  0  0  0  0  0
  -23.8096   19.0792  -10.6820 C   0  0  0  0  0  0
  1  2  1  0  0  0
  2  3  1  0  0  0
  3  4  2  0  0  0
  4  5  1  0  0  0
  5  6  2  0  0  0
  5 15  1  0  0  0
  6  7  1  0  0  0
  6 17  1  0  0  0
  7  8  2  0  0  0
  8  9  1  0  0  0
  8 14  1  0  0  0
  9 10  2  0  0  0
 10 11  1  0  0  0
 11 12  1  0  0  0
 11 13  2  0  0  0
 13 14  1  0  0  0
 14 15  1  0  0  0
 15 16  2  0  0  0
 17 18  1  0  0  0
 17 21  1  0  0  0
 18 19  1  0  0  0
 18 20  1  0  0  0
 21 22  1  0  0  0
 21 23  1  0  0  0
M  END
>  <CHROM.0>
-179.52100963,-71.56183955,72.21366525,65.08528557,-30.08313490,-177.83296534
-36.51735434,-160.82074066

>  <CHROM.1>
110.24277841,175.09717434,-7.52535064,125.86491946,-69.49480806,-22.16191079
21.90190284,-12.36679253,-2.34211289,-0.57463723,-2.65859355

>  <Name>
F1673-3085

>  <RI>
4.07985e+07

>  <Rbt.Current_Directory>
/home/adria/Escritorio/rDock_CMTR_LC/2pxcA_model/inputs_sah

>  <Rbt.Executable>
rbdock ($Id: //depot/dev/client3/rdock/2013.1/src/exe/rbdock.cxx#4 $)

>  <Rbt.Library>
libRbt.so (2013.1, Build901 2013/11/27)

>  <Rbt.Parameter_File>
/home/adria/Escritorio/rDock_2013.1_src/data/scripts/dock.prm

>  <Rbt.Receptor>
sah_rdock.prm

>  <SCORE>
-57.89

>  <SCORE.INTER>
-6.62104

>  <SCORE.INTER.CONST>
1

>  <SCORE.INTER.POLAR>
-0.87178

>  <SCORE.INTER.REPUL>
0.00561825

>  <SCORE.INTER.ROT>
5

>  <SCORE.INTER.VDW>
-14.0851

>  <SCORE.INTER.norm>
-0.287871

>  <SCORE.INTRA>
-43.8388

>  <SCORE.INTRA.DIHEDRAL>
-100.926

>  <SCORE.INTRA.DIHEDRAL.0>
107.147

>  <SCORE.INTRA.POLAR>
0

>  <SCORE.INTRA.POLAR.0>
0

>  <SCORE.INTRA.REPUL>
0

>  <SCORE.INTRA.REPUL.0>
0

>  <SCORE.INTRA.VDW>
6.62404

>  <SCORE.INTRA.VDW.0>
-2.46535

>  <SCORE.INTRA.norm>
-1.90603

>  <SCORE.RESTR>
0

>  <SCORE.RESTR.CAVITY>
0

>  <SCORE.RESTR.norm>
0

>  <SCORE.SYSTEM>
-7.4302

>  <SCORE.SYSTEM.CONST>
0

>  <SCORE.SYSTEM.DIHEDRAL>
6.43525

>  <SCORE.SYSTEM.POLAR>
-4.03716

>  <SCORE.SYSTEM.REPUL>
0.0358668

>  <SCORE.SYSTEM.VDW>
2.89918

>  <SCORE.SYSTEM.norm>
-0.323052

>  <SCORE.heavy>
23

>  <SCORE.norm>
-2.51696

$$$$
F1673-3085
  rDOCK(R)          3D
libRbt.so/2013.1/901 2013/11/27
 23 24  0  0  0  0  0  0  0  0999 V2000
  -24.8011   19.0284   -8.7439 C   0  0  0  0  0  0
  -23.4665   19.4036   -8.4315 O   0  0  0  0  0  0
  -22.7032   19.3848   -9.6109 N   0  0  0  0  0  0
  -22.6094   20.5968  -10.0543 C   0  0  0  0  0  0
  -21.9063   21.0486  -11.2833 C   0  0  0  0  0  0
  -22.1007   22.2429  -11.8878 C   0  0  0  0  0  0
  -21.4050   22.5893  -13.0258 N   0  0  0  0  0  0
  -20.5452   21.7658  -13.5294 C   0  0  0  0  0  0
  -19.7657   22.1821  -14.7280 C   0  0  0  0  0  0
  -18.8612   21.3506  -15.2605 C   0  0  0  0  0  0
  -18.6391   20.0397  -14.6926 C   0  0  0  0  0  0
  -17.6140   19.1578  -15.3359 C   0  0  0  0  0  0
  -19.3526   19.6681  -13.6178 C   0  0  0  0  0  0
  -20.2891   20.5080  -13.0263 N   0  3  0  0  0  0
  -20.9845   20.0724  -11.9141 C   0  0  0  0  0  0
  -20.8639   18.9482  -11.4279 O   0  0  0  0  0  0
  -22.9540   23.2248  -11.3515 N   0  0  0  0  0  0
  -23.1144   24.5608  -11.9724 C   0  0  0  0  0  0
  -21.7989   25.3364  -12.0635 C   0  0  0  0  0  0
  -23.7362   24.4478  -13.3678 C   0  0  0  0  0  0
  -23.4714   22.9841   -9.9787 C   0  0  0  0  0  0
  -22.9928   24.0418   -8.9846 C   0  0  0  0  0  0
  -24.9888   22.8259   -9.9149 C   0  0  0  0  0  0
  1  2  1  0  0  0
  2  3  1  0  0  0
  3  4  2  0  0  0
  4  5  1  0  0  0
  5  6  2  0  0  0
  5 15  1  0  0  0
  6  7  1  0  0  0
  6 17  1  0  0  0
  7  8  2  0  0  0
  8  9  1  0  0  0
  8 14  1  0  0  0
  9 10  2  0  0  0
 10 11  1  0  0  0
 11 12  1  0  0  0
 11 13  2  0  0  0
 13 14  1  0  0  0
 14 15  1  0  0  0
 15 16  2  0  0  0
 17 18  1  0  0  0
 17 21  1  0  0  0
 18 19  1  0  0  0
 18 20  1  0  0  0
 21 22  1  0  0  0
 21 23  1  0  0  0
M  END
>  <CHROM.0>
-177.07984894,-73.18669719,111.24464882,-58.56848656,-31.03061206,63.02117004
-156.09815283,-159.08741648

>  <CHROM.1>
98.88493471,162.75834265,176.69207374,-59.21225031,116.61664789,-21.75520146
21.53730609,-11.85057479,-3.04909115,0.80804319,-0.43721108

>  <Name>
F1673-3085

>  <RI>
4.07985e+07

>  <Rbt.Current_Directory>
/home/adria/Escritorio/rDock_CMTR_LC/2pxcA_model/inputs_sah

>  <Rbt.Executable>
rbdock ($Id: //depot/dev/client3/rdock/2013.1/src/exe/rbdock.cxx#4 $)

>  <Rbt.Library>
libRbt.so (2013.1, Build901 2013/11/27)

>  <Rbt.Parameter_File>
/home/adria/Escritorio/rDock_2013.1_src/data/scripts/dock.prm

>  <Rbt.Receptor>
sah_rdock.prm

>  <SCORE>
-59.1323

>  <SCORE.INTER>
-11.3363

>  <SCORE.INTER.CONST>
1

>  <SCORE.INTER.POLAR>
-0.937807

>  <SCORE.INTER.REPUL>
0.194346

>  <SCORE.INTER.ROT>
5

>  <SCORE.INTER.VDW>
-19.5194

>  <SCORE.INTER.norm>
-0.492881

>  <SCORE.INTRA>
-40.8402

>  <SCORE.INTRA.DIHEDRAL>
-99.378

>  <SCORE.INTRA.DIHEDRAL.0>
107.147

>  <SCORE.INTRA.POLAR>
0

>  <SCORE.INTRA.POLAR.0>
0

>  <SCORE.INTRA.REPUL>
0

>  <SCORE.INTRA.REPUL.0>
0

>  <SCORE.INTRA.VDW>
8.84879

>  <SCORE.INTRA.VDW.0>
-2.46535

>  <SCORE.INTRA.norm>
-1.77566

>  <SCORE.RESTR>
0

>  <SCORE.RESTR.CAVITY>
0

>  <SCORE.RESTR.norm>
0

>  <SCORE.SYSTEM>
-6.95583

>  <SCORE.SYSTEM.CONST>
0

>  <SCORE.SYSTEM.DIHEDRAL>
9.56598

>  <SCORE.SYSTEM.POLAR>
-4.67493

>  <SCORE.SYSTEM.REPUL>
0.0388672

>  <SCORE.SYSTEM.VDW>
3.96159

>  <SCORE.SYSTEM.norm>
-0.302427

>  <SCORE.heavy>
23

>  <SCORE.norm>
-2.57097

$$$$
F1673-3085
  rDOCK(R)          3D
libRbt.so/2013.1/901 2013/11/27
 23 24  0  0  0  0  0  0  0  0999 V2000
  -21.7531   26.5128   -9.3965 C   0  0  0  0  0  0
  -22.1677   26.1873  -10.7161 O   0  0  0  0  0  0
  -21.5222   25.0047  -11.1146 N   0  0  0  0  0  0
  -22.3228   24.0114  -10.8983 C   0  0  0  0  0  0
  -22.0540   22.5724  -11.1553 C   0  0  0  0  0  0
  -22.7207   21.5481  -10.5760 C   0  0  0  0  0  0
  -22.4128   20.2376  -10.8706 N   0  0  0  0  0  0
  -21.4738   19.9728  -11.7186 C   0  0  0  0  0  0
  -21.1940   18.5513  -12.0628 C   0  0  0  0  0  0
  -20.2339   18.2529  -12.9473 C   0  0  0  0  0  0
  -19.4502   19.2981  -13.5667 C   0  0  0  0  0  0
  -18.3911   18.8976  -14.5467 C   0  0  0  0  0  0
  -19.7021   20.5767  -13.2440 C   0  0  0  0  0  0
  -20.7004   20.9283  -12.3428 N   0  3  0  0  0  0
  -20.9196   22.2633  -12.0598 C   0  0  0  0  0  0
  -20.2450   23.1817  -12.5248 O   0  0  0  0  0  0
  -23.8106   21.7567   -9.7107 N   0  0  0  0  0  0
  -24.1568   23.0965   -9.1804 C   0  0  0  0  0  0
  -25.6155   23.4793   -9.4372 C   0  0  0  0  0  0
  -23.8636   23.1868   -7.6797 C   0  0  0  0  0  0
  -24.4321   20.5454   -9.1136 C   0  0  0  0  0  0
  -25.0252   19.6159  -10.1722 C   0  0  0  0  0  0
  -23.5021   19.7781   -8.1766 C   0  0  0  0  0  0
  1  2  1  0  0  0
  2  3  1  0  0  0
  3  4  2  0  0  0
  4  5  1  0  0  0
  5  6  2  0  0  0
  5 15  1  0  0  0
  6  7  1  0  0  0
  6 17  1  0  0  0
  7  8  2  0  0  0
  8  9  1  0  0  0
  8 14  1  0  0  0
  9 10  2  0  0  0
 10 11  1  0  0  0
 11 12  1  0  0  0
 11 13  2  0  0  0
 13 14  1  0  0  0
 14 15  1  0  0  0
 15 16  2  0  0  0
 17 18  1  0  0  0
 17 21  1  0  0  0
 18 19  1  0  0  0
 18 20  1  0  0  0
 21 22  1  0  0  0
 21 23  1  0  0  0
M  END
>  <CHROM.0>
-176.05904094,67.69292540,-7.45081577,64.14637411,-30.36928969,179.58813364
85.08784834,-162.30356954

>  <CHROM.1>
96.37689297,159.56863124,-11.15330956,126.62619624,-62.12335007,-22.10508325
21.79154169,-10.96552197,-2.33415453,-0.70935111,-2.99754675

>  <Name>
F1673-3085

>  <RI>
4.07985e+07

>  <Rbt.Current_Directory>
/home/adria/Escritorio/rDock_CMTR_LC/2pxcA_model/inputs_sah

>  <Rbt.Executable>
rbdock ($Id: //depot/dev/client3/rdock/2013.1/src/exe/rbdock.cxx#4 $)

>  <Rbt.Library>
libRbt.so (2013.1, Build901 2013/11/27)

>  <Rbt.Parameter_File>
/home/adria/Escritorio/rDock_2013.1_src/data/scripts/dock.prm

>  <Rbt.Receptor>
sah_rdock.prm

>  <SCORE>
-57.7828

>  <SCORE.INTER>
-8.86639

>  <SCORE.INTER.CONST>
1

>  <SCORE.INTER.POLAR>
-0.87178

>  <SCORE.INTER.REPUL>
0.0761254

>  <SCORE.INTER.ROT>
5

>  <SCORE.INTER.VDW>
-16.683

>  <SCORE.INTER.norm>
-0.385495

>  <SCORE.INTRA>
-42.5672

>  <SCORE.INTRA.DIHEDRAL>
-99.4675

>  <SCORE.INTRA.DIHEDRAL.0>
107.147

>  <SCORE.INTRA.POLAR>
0

>  <SCORE.INTRA.POLAR.0>
0

>  <SCORE.INTRA.REPUL>
0

>  <SCORE.INTRA.REPUL.0>
0

>  <SCORE.INTRA.VDW>
7.16662

>  <SCORE.INTRA.VDW.0>
-2.46535

>  <SCORE.INTRA.norm>
-1.85075

>  <SCORE.RESTR>
0

>  <SCORE.RESTR.CAVITY>
0

>  <SCORE.RESTR.norm>
0

>  <SCORE.SYSTEM>
-6.34928

>  <SCORE.SYSTEM.CONST>
0

>  <SCORE.SYSTEM.DIHEDRAL>
9.23024

>  <SCORE.SYSTEM.POLAR>
-4.2613

>  <SCORE.SYSTEM.VDW>
3.52403

>  <SCORE.SYSTEM.norm>
-0.276056

>  <SCORE.heavy>
23

>  <SCORE.norm>
-2.5123

$$$$
F1673-3085
  rDOCK(R)          3D
libRbt.so/2013.1/901 2013/11/27
 23 24  0  0  0  0  0  0  0  0999 V2000
  -21.5826   26.1822   -9.6343 C   0  0  0  0  0  0
  -22.2710   26.0419  -10.8695 O   0  0  0  0  0  0
  -21.6219   25.0633  -11.6408 N   0  0  0  0  0  0
  -22.4165   24.0495  -11.7644 C   0  0  0  0  0  0
  -22.1420   22.7796  -12.4862 C   0  0  0  0  0  0
  -22.9707   21.7109  -12.5086 C   0  0  0  0  0  0
  -22.6443   20.5682  -13.2062 N   0  0  0  0  0  0
  -21.5295   20.5091  -13.8579 C   0  0  0  0  0  0
  -21.2215   19.2855  -14.6488 C   0  0  0  0  0  0
  -20.0782   19.2060  -15.3413 C   0  0  0  0  0  0
  -19.1255   20.2933  -15.3207 C   0  0  0  0  0  0
  -17.8658   20.1412  -16.1160 C   0  0  0  0  0  0
  -19.4061   21.3891  -14.5977 C   0  0  0  0  0  0
  -20.5887   21.5167  -13.8783 N   0  3  0  0  0  0
  -20.8256   22.6747  -13.1620 C   0  0  0  0  0  0
  -20.0223   23.6032  -13.0759 O   0  0  0  0  0  0
  -24.2376   21.7314  -11.8967 N   0  0  0  0  0  0
  -25.2094   20.6229  -12.0485 C   0  0  0  0  0  0
  -25.5053   20.2870  -13.5113 C   0  0  0  0  0  0
  -24.7241   19.3629  -11.3252 C   0  0  0  0  0  0
  -24.6850   23.0300  -11.3281 C   0  0  0  0  0  0
  -25.9735   23.5345  -11.9774 C   0  0  0  0  0  0
  -24.8109   23.0217   -9.8063 C   0  0  0  0  0  0
  1  2  1  0  0  0
  2  3  1  0  0  0
  3  4  2  0  0  0
  4  5  1  0  0  0
  5  6  2  0  0  0
  5 15  1  0  0  0
  6  7  1  0  0  0
  6 17  1  0  0  0
  7  8  2  0  0  0
  8  9  1  0  0  0
  8 14  1  0  0  0
  9 10  2  0  0  0
 10 11  1  0  0  0
 11 12  1  0  0  0
 11 13  2  0  0  0
 13 14  1  0  0  0
 14 15  1  0  0  0
 15 16  2  0  0  0
 17 18  1  0  0  0
 17 21  1  0  0  0
 18 19  1  0  0  0
 18 20  1  0  0  0
 21 22  1  0  0  0
 21 23  1  0  0  0
M  END
>  <CHROM.0>
-68.50762564,66.39967061,75.70638851,63.83985881,-29.76554393,177.46755731
-36.51168591,-161.59166478

>  <CHROM.1>
113.37875361,175.15565262,172.89018092,-54.40845412,119.61252751,-22.27667470
22.09066580,-12.72738931,-2.31201739,-0.39625760,-2.62052157

>  <Name>
F1673-3085

>  <RI>
4.07985e+07

>  <Rbt.Current_Directory>
/home/adria/Escritorio/rDock_CMTR_LC/2pxcA_model/inputs_sah

>  <Rbt.Executable>
rbdock ($Id: //depot/dev/client3/rdock/2013.1/src/exe/rbdock.cxx#4 $)

>  <Rbt.Library>
libRbt.so (2013.1, Build901 2013/11/27)

>  <Rbt.Parameter_File>
/home/adria/Escritorio/rDock_2013.1_src/data/scripts/dock.prm

>  <Rbt.Receptor>
sah_rdock.prm

>  <SCORE>
-52.3397

>  <SCORE.INTER>
-3.63925

>  <SCORE.INTER.CONST>
1

>  <SCORE.INTER.POLAR>
0

>  <SCORE.INTER.REPUL>
0.0102518

>  <SCORE.INTER.ROT>
5

>  <SCORE.INTER.VDW>
-14.0905

>  <SCORE.INTER.norm>
-0.158228

>  <SCORE.INTRA>
-41.4158

>  <SCORE.INTRA.DIHEDRAL>
-100.854

>  <SCORE.INTRA.DIHEDRAL.0>
107.147

>  <SCORE.INTRA.POLAR>
0

>  <SCORE.INTRA.POLAR.0>
0

>  <SCORE.INTRA.REPUL>
0

>  <SCORE.INTRA.REPUL.0>
0

>  <SCORE.INTRA.VDW>
9.01123

>  <SCORE.INTRA.VDW.0>
-2.46535

>  <SCORE.INTRA.norm>
-1.80069

>  <SCORE.RESTR>
0

>  <SCORE.RESTR.CAVITY>
0

>  <SCORE.RESTR.norm>
0

>  <SCORE.SYSTEM>
-7.28467

>  <SCORE.SYSTEM.CONST>
0

>  <SCORE.SYSTEM.DIHEDRAL>
6.53595

>  <SCORE.SYSTEM.POLAR>
-3.7865

>  <SCORE.SYSTEM.VDW>
2.32144

>  <SCORE.SYSTEM.norm>
-0.316725

>  <SCORE.heavy>
23

>  <SCORE.norm>
-2.27564

$$$$
