F2382-0764
  rDOCK(R)          3D
libRbt.so/2013.1/901 2013/11/27
 33 36  0  0  0  0  0  0  0  0999 V2000
  -13.9307   21.0016  -17.2393 C   0  0  0  0  0  0
  -14.4329   19.5935  -17.1910 C   0  0  0  0  0  0
  -13.7252   18.6688  -17.5920 O   0  0  0  0  0  0
  -15.7087   19.3718  -16.7262 N   0  0  0  0  0  0
  -16.6530   20.3445  -16.2385 C   0  0  0  0  0  0
  -18.0815   19.9193  -16.7029 C   0  0  0  0  0  0
  -18.7644   18.3509  -15.9392 N   0  0  0  0  0  0
  -17.3104   17.6422  -15.8360 C   0  0  0  0  0  0
  -16.1839   18.0014  -16.7900 C   0  0  0  0  0  0
  -20.4107   18.3338  -14.8295 C   0  0  0  0  0  0
  -21.4028   17.5361  -14.7106 O   0  0  0  0  0  0
  -20.7894   19.5856  -13.5115 C   0  0  0  0  0  0
  -20.3412   20.9724  -13.4494 C   0  0  0  0  0  0
  -21.3970   21.7552  -13.0071 N   0  0  0  0  0  0
  -21.4054   23.2312  -12.9719 C   0  0  0  0  0  0
  -21.9796   23.8596  -11.7214 C   0  0  0  0  0  0
  -21.6318   25.1813  -11.4056 C   0  0  0  0  0  0
  -22.0712   25.7595  -10.2204 C   0  0  0  0  0  0
  -21.6969   27.0109   -9.9243 F   0  0  0  0  0  0
  -22.8736   25.0543   -9.3342 C   0  0  0  0  0  0
  -23.2600   23.7521   -9.6487 C   0  0  0  0  0  0
  -22.8252   23.1592  -10.8419 C   0  0  0  0  0  0
  -22.4526   21.0151  -12.6542 N   0  0  0  0  0  0
  -22.1405   19.7661  -13.0185 C   0  0  0  0  0  0
  -23.2434   19.0335  -13.2691 O   0  0  0  0  0  0
  -24.2591   19.2024  -12.2993 C   0  0  0  0  0  0
  -25.7060   20.0329  -12.8109 C   0  0  0  0  0  0
  -24.9673   21.2725  -13.8099 C   0  0  0  0  0  0
  -25.0026   22.9582  -13.3874 C   0  0  0  0  0  0
  -24.6616   23.8007  -14.3878 F   0  0  0  0  0  0
  -25.8132   23.5751  -11.8945 C   0  0  0  0  0  0
  -26.7505   22.3878  -10.8453 C   0  0  0  0  0  0
  -26.7825   20.5435  -11.4310 C   0  0  0  0  0  0
  1  2  1  0  0  0
  2  3  2  0  0  0
  2  4  1  0  0  0
  4  5  1  0  0  0
  4  9  1  0  0  0
  5  6  1  0  0  0
  6  7  1  0  0  0
  7  8  1  0  0  0
  7 10  1  0  0  0
  8  9  1  0  0  0
 10 11  2  0  0  0
 10 12  1  0  0  0
 12 13  2  0  0  0
 12 24  1  0  0  0
 13 14  1  0  0  0
 14 15  1  0  0  0
 14 23  1  0  0  0
 15 16  1  0  0  0
 16 17  2  0  0  0
 16 22  1  0  0  0
 17 18  1  0  0  0
 18 19  1  0  0  0
 18 20  2  0  0  0
 20 21  1  0  0  0
 21 22  2  0  0  0
 23 24  2  0  0  0
 24 25  1  0  0  0
 25 26  1  0  0  0
 26 27  1  0  0  0
 27 28  2  0  0  0
 27 33  1  0  0  0
 28 29  1  0  0  0
 29 30  1  0  0  0
 29 31  2  0  0  0
 31 32  1  0  0  0
 32 33  2  0  0  0
M  END
>  <CHROM.0>
-60.85746295,-77.20688308,-128.51909935,-64.39170480,167.62342219,65.49982573
-38.16342739,-165.09864710

>  <CHROM.1>
140.85009007,28.10309225,-136.73270110,158.90906875,159.67829551,111.17383214
-39.77655895,-21.10836608,21.28466745,-13.55261783,-0.62807950,0.31801452
0.48490170

>  <Name>
F2382-0764

>  <RI>
1.347e+07

>  <Rbt.Current_Directory>
/home/adria/Escritorio/rDock_CMTR_LC/2pxcA_model/inputs_sah

>  <Rbt.Executable>
rbdock ($Id: //depot/dev/client3/rdock/2013.1/src/exe/rbdock.cxx#4 $)

>  <Rbt.Library>
libRbt.so (2013.1, Build901 2013/11/27)

>  <Rbt.Parameter_File>
/home/adria/Escritorio/rDock_2013.1_src/data/scripts/dock.prm

>  <Rbt.Receptor>
sah_rdock.prm

>  <SCORE>
-258.842

>  <SCORE.INTER>
-11.6491

>  <SCORE.INTER.CONST>
1

>  <SCORE.INTER.POLAR>
-0.894427

>  <SCORE.INTER.REPUL>
0.0708585

>  <SCORE.INTER.ROT>
7

>  <SCORE.INTER.VDW>
-21.3623

>  <SCORE.INTER.norm>
-0.353002

>  <SCORE.INTRA>
-245.179

>  <SCORE.INTRA.DIHEDRAL>
5.41446

>  <SCORE.INTRA.DIHEDRAL.0>
15.2124

>  <SCORE.INTRA.POLAR>
0

>  <SCORE.INTRA.POLAR.0>
0

>  <SCORE.INTRA.REPUL>
0

>  <SCORE.INTRA.REPUL.0>
0

>  <SCORE.INTRA.VDW>
-247.886

>  <SCORE.INTRA.VDW.0>
246.234

>  <SCORE.INTRA.norm>
-7.42967

>  <SCORE.RESTR>
0

>  <SCORE.RESTR.CAVITY>
0

>  <SCORE.RESTR.norm>
0

>  <SCORE.SYSTEM>
-2.01394

>  <SCORE.SYSTEM.CONST>
0

>  <SCORE.SYSTEM.DIHEDRAL>
7.06267

>  <SCORE.SYSTEM.POLAR>
-4.50302

>  <SCORE.SYSTEM.REPUL>
0.0451671

>  <SCORE.SYSTEM.VDW>
9.53915

>  <SCORE.SYSTEM.norm>
-0.0610285

>  <SCORE.heavy>
33

>  <SCORE.norm>
-7.8437

$$$$
F2382-0764
  rDOCK(R)          3D
libRbt.so/2013.1/901 2013/11/27
 33 36  0  0  0  0  0  0  0  0999 V2000
  -18.0336   19.1906  -17.7456 C   0  0  0  0  0  0
  -18.4497   17.9976  -16.9449 C   0  0  0  0  0  0
  -17.9232   16.9025  -17.1449 O   0  0  0  0  0  0
  -19.4532   18.1531  -16.0166 N   0  0  0  0  0  0
  -20.1676   19.3584  -15.6811 C   0  0  0  0  0  0
  -21.6562   18.9849  -15.3955 C   0  0  0  0  0  0
  -21.9682   17.9518  -13.8642 N   0  0  0  0  0  0
  -20.5659   17.1489  -13.9912 C   0  0  0  0  0  0
  -19.8871   16.9468  -15.3352 C   0  0  0  0  0  0
  -23.0782   18.5973  -12.3499 C   0  0  0  0  0  0
  -23.8607   18.0354  -11.5092 O   0  0  0  0  0  0
  -23.0841   20.3503  -11.7381 C   0  0  0  0  0  0
  -22.0813   21.3803  -11.9858 C   0  0  0  0  0  0
  -22.7344   22.5805  -12.2229 N   0  0  0  0  0  0
  -22.0869   23.8252  -12.6824 C   0  0  0  0  0  0
  -21.2605   24.5606  -11.6505 C   0  0  0  0  0  0
  -19.9092   24.2181  -11.4945 C   0  0  0  0  0  0
  -19.1443   24.8123  -10.4976 C   0  0  0  0  0  0
  -17.8659   24.4430  -10.3456 F   0  0  0  0  0  0
  -19.6900   25.7651   -9.6485 C   0  0  0  0  0  0
  -21.0214   26.1452   -9.8123 C   0  0  0  0  0  0
  -21.8021   25.5548  -10.8156 C   0  0  0  0  0  0
  -24.0537   22.4755  -12.0356 N   0  0  0  0  0  0
  -24.2748   21.1713  -11.8344 C   0  0  0  0  0  0
  -25.5246   20.8199  -12.1956 O   0  0  0  0  0  0
  -26.0033   19.6771  -11.5131 C   0  0  0  0  0  0
  -26.0530   19.7637   -9.7710 C   0  0  0  0  0  0
  -26.4500   21.4644   -9.5961 C   0  0  0  0  0  0
  -25.3432   22.6176   -8.9130 C   0  0  0  0  0  0
  -25.8968   23.8036   -8.5756 F   0  0  0  0  0  0
  -23.7004   22.1601   -8.3145 C   0  0  0  0  0  0
  -23.2282   20.3807   -8.3083 C   0  0  0  0  0  0
  -24.5477   19.1261   -8.9641 C   0  0  0  0  0  0
  1  2  1  0  0  0
  2  3  2  0  0  0
  2  4  1  0  0  0
  4  5  1  0  0  0
  4  9  1  0  0  0
  5  6  1  0  0  0
  6  7  1  0  0  0
  7  8  1  0  0  0
  7 10  1  0  0  0
  8  9  1  0  0  0
 10 11  2  0  0  0
 10 12  1  0  0  0
 12 13  2  0  0  0
 12 24  1  0  0  0
 13 14  1  0  0  0
 14 15  1  0  0  0
 14 23  1  0  0  0
 15 16  1  0  0  0
 16 17  2  0  0  0
 16 22  1  0  0  0
 17 18  1  0  0  0
 18 19  1  0  0  0
 18 20  2  0  0  0
 20 21  1  0  0  0
 21 22  2  0  0  0
 23 24  2  0  0  0
 24 25  1  0  0  0
 25 26  1  0  0  0
 26 27  1  0  0  0
 27 28  2  0  0  0
 27 33  1  0  0  0
 28 29  1  0  0  0
 29 30  1  0  0  0
 29 31  2  0  0  0
 31 32  1  0  0  0
 32 33  2  0  0  0
M  END
>  <CHROM.0>
-178.01996455,64.44328945,-47.81412553,61.81057385,168.54258235,60.89681738
-155.12958845,-161.31127469

>  <CHROM.1>
147.10956881,-18.03691772,-73.79683209,87.86638453,49.59966026,58.15684791
34.38379514,-22.11179446,21.09034651,-12.11975489,-1.02126983,0.52226331
0.59111513

>  <Name>
F2382-0764

>  <RI>
1.347e+07

>  <Rbt.Current_Directory>
/home/adria/Escritorio/rDock_CMTR_LC/2pxcA_model/inputs_sah

>  <Rbt.Executable>
rbdock ($Id: //depot/dev/client3/rdock/2013.1/src/exe/rbdock.cxx#4 $)

>  <Rbt.Library>
libRbt.so (2013.1, Build901 2013/11/27)

>  <Rbt.Parameter_File>
/home/adria/Escritorio/rDock_2013.1_src/data/scripts/dock.prm

>  <Rbt.Receptor>
sah_rdock.prm

>  <SCORE>
-260.163

>  <SCORE.INTER>
-10.6958

>  <SCORE.INTER.CONST>
1

>  <SCORE.INTER.POLAR>
0

>  <SCORE.INTER.REPUL>
0

>  <SCORE.INTER.ROT>
7

>  <SCORE.INTER.VDW>
-23.0958

>  <SCORE.INTER.norm>
-0.324115

>  <SCORE.INTRA>
-247.507

>  <SCORE.INTRA.DIHEDRAL>
3.47119

>  <SCORE.INTRA.DIHEDRAL.0>
15.2124

>  <SCORE.INTRA.POLAR>
0

>  <SCORE.INTRA.POLAR.0>
0

>  <SCORE.INTRA.REPUL>
0

>  <SCORE.INTRA.REPUL.0>
0

>  <SCORE.INTRA.VDW>
-249.242

>  <SCORE.INTRA.VDW.0>
246.234

>  <SCORE.INTRA.norm>
-7.50021

>  <SCORE.RESTR>
0

>  <SCORE.RESTR.CAVITY>
0

>  <SCORE.RESTR.norm>
0

>  <SCORE.SYSTEM>
-1.96061

>  <SCORE.SYSTEM.CONST>
0

>  <SCORE.SYSTEM.DIHEDRAL>
2.93262

>  <SCORE.SYSTEM.POLAR>
-3.62986

>  <SCORE.SYSTEM.VDW>
8.9146

>  <SCORE.SYSTEM.norm>
-0.0594124

>  <SCORE.heavy>
33

>  <SCORE.norm>
-7.88374

$$$$
F2382-0764
  rDOCK(R)          3D
libRbt.so/2013.1/901 2013/11/27
 33 36  0  0  0  0  0  0  0  0999 V2000
  -27.1413   19.7832  -11.3098 C   0  0  0  0  0  0
  -25.8720   19.2700  -10.7074 C   0  0  0  0  0  0
  -25.7721   19.1433   -9.4865 O   0  0  0  0  0  0
  -24.8204   18.9843  -11.5474 N   0  0  0  0  0  0
  -24.7819   19.0929  -12.9834 C   0  0  0  0  0  0
  -23.3628   19.5914  -13.4014 C   0  0  0  0  0  0
  -21.9482   18.4009  -13.0994 N   0  0  0  0  0  0
  -22.6203   17.7754  -11.7636 C   0  0  0  0  0  0
  -23.5809   18.5825  -10.9071 C   0  0  0  0  0  0
  -20.8289   17.6788  -14.5717 C   0  0  0  0  0  0
  -21.0772   17.1294  -15.6993 O   0  0  0  0  0  0
  -18.9766   17.7956  -14.6232 C   0  0  0  0  0  0
  -18.0753   17.1848  -15.5940 C   0  0  0  0  0  0
  -17.0822   18.1006  -15.9074 N   0  0  0  0  0  0
  -16.0772   17.9334  -16.9759 C   0  0  0  0  0  0
  -15.7897   16.5090  -17.3965 C   0  0  0  0  0  0
  -15.8127   15.4974  -16.4251 C   0  0  0  0  0  0
  -15.4683   14.1932  -16.7605 C   0  0  0  0  0  0
  -15.4638   13.2517  -15.8079 F   0  0  0  0  0  0
  -15.1121   13.8583  -18.0595 C   0  0  0  0  0  0
  -15.1192   14.8430  -19.0464 C   0  0  0  0  0  0
  -15.4670   16.1612  -18.7208 C   0  0  0  0  0  0
  -17.1640   19.2019  -15.1543 N   0  0  0  0  0  0
  -18.3037   19.0698  -14.4658 C   0  0  0  0  0  0
  -18.8177   20.2680  -14.1253 O   0  0  0  0  0  0
  -19.7927   20.1882  -13.1036 C   0  0  0  0  0  0
  -20.0464   21.6231  -12.1436 C   0  0  0  0  0  0
  -21.2789   21.0067  -11.0566 C   0  0  0  0  0  0
  -22.9166   21.5888  -11.0734 C   0  0  0  0  0  0
  -23.6540   21.2382   -9.9963 F   0  0  0  0  0  0
  -23.4823   22.8844  -12.1996 C   0  0  0  0  0  0
  -22.2457   23.7120  -13.2835 C   0  0  0  0  0  0
  -20.4127   23.1096  -13.1335 C   0  0  0  0  0  0
  1  2  1  0  0  0
  2  3  2  0  0  0
  2  4  1  0  0  0
  4  5  1  0  0  0
  4  9  1  0  0  0
  5  6  1  0  0  0
  6  7  1  0  0  0
  7  8  1  0  0  0
  7 10  1  0  0  0
  8  9  1  0  0  0
 10 11  2  0  0  0
 10 12  1  0  0  0
 12 13  2  0  0  0
 12 24  1  0  0  0
 13 14  1  0  0  0
 14 15  1  0  0  0
 14 23  1  0  0  0
 15 16  1  0  0  0
 16 17  2  0  0  0
 16 22  1  0  0  0
 17 18  1  0  0  0
 18 19  1  0  0  0
 18 20  2  0  0  0
 20 21  1  0  0  0
 21 22  2  0  0  0
 23 24  2  0  0  0
 24 25  1  0  0  0
 25 26  1  0  0  0
 26 27  1  0  0  0
 27 28  2  0  0  0
 27 33  1  0  0  0
 28 29  1  0  0  0
 29 30  1  0  0  0
 29 31  2  0  0  0
 31 32  1  0  0  0
 32 33  2  0  0  0
M  END
>  <CHROM.0>
-176.09973480,66.44297453,-45.27923733,62.26646891,-30.74325880,60.56732268
83.68756816,-159.31808975

>  <CHROM.1>
-49.31566329,173.60327289,-23.35061610,-35.35956058,40.54932030,155.73206751
-179.12424319,-20.32571634,18.60529944,-13.88857430,2.59300750,0.51661376
0.19997077

>  <Name>
F2382-0764

>  <RI>
1.347e+07

>  <Rbt.Current_Directory>
/home/adria/Escritorio/rDock_CMTR_LC/2pxcA_model/inputs_sah

>  <Rbt.Executable>
rbdock ($Id: //depot/dev/client3/rdock/2013.1/src/exe/rbdock.cxx#4 $)

>  <Rbt.Library>
libRbt.so (2013.1, Build901 2013/11/27)

>  <Rbt.Parameter_File>
/home/adria/Escritorio/rDock_2013.1_src/data/scripts/dock.prm

>  <Rbt.Receptor>
sah_rdock.prm

>  <SCORE>
-261.334

>  <SCORE.INTER>
-7.38548

>  <SCORE.INTER.CONST>
1

>  <SCORE.INTER.POLAR>
0

>  <SCORE.INTER.REPUL>
0.0551316

>  <SCORE.INTER.ROT>
7

>  <SCORE.INTER.VDW>
-20.0611

>  <SCORE.INTER.norm>
-0.223802

>  <SCORE.INTRA>
-247.318

>  <SCORE.INTRA.DIHEDRAL>
2.2477

>  <SCORE.INTRA.DIHEDRAL.0>
15.2124

>  <SCORE.INTRA.POLAR>
0

>  <SCORE.INTRA.POLAR.0>
0

>  <SCORE.INTRA.REPUL>
0

>  <SCORE.INTRA.REPUL.0>
0

>  <SCORE.INTRA.VDW>
-248.441

>  <SCORE.INTRA.VDW.0>
246.234

>  <SCORE.INTRA.norm>
-7.49447

>  <SCORE.RESTR>
0

>  <SCORE.RESTR.CAVITY>
0

>  <SCORE.RESTR.norm>
0

>  <SCORE.SYSTEM>
-6.6308

>  <SCORE.SYSTEM.CONST>
0

>  <SCORE.SYSTEM.DIHEDRAL>
6.0873

>  <SCORE.SYSTEM.POLAR>
-3.66293

>  <SCORE.SYSTEM.VDW>
2.77953

>  <SCORE.SYSTEM.norm>
-0.200933

>  <SCORE.heavy>
33

>  <SCORE.norm>
-7.91921

$$$$
F2382-0764
  rDOCK(R)          3D
libRbt.so/2013.1/901 2013/11/27
 33 36  0  0  0  0  0  0  0  0999 V2000
  -14.2159   18.5247  -18.3062 C   0  0  0  0  0  0
  -15.2193   17.4319  -18.1157 C   0  0  0  0  0  0
  -15.1660   16.4139  -18.8066 O   0  0  0  0  0  0
  -16.2136   17.6151  -17.1825 N   0  0  0  0  0  0
  -16.4130   18.7474  -16.3144 C   0  0  0  0  0  0
  -17.9478   18.9971  -16.1760 C   0  0  0  0  0  0
  -18.9191   17.6791  -15.2656 N   0  0  0  0  0  0
  -17.9747   16.4709  -15.7902 C   0  0  0  0  0  0
  -17.2178   16.5695  -17.1038 C   0  0  0  0  0  0
  -19.9080   18.0527  -13.5849 C   0  0  0  0  0  0
  -20.6423   17.3560  -12.8036 O   0  0  0  0  0  0
  -19.8347   19.6679  -12.6722 C   0  0  0  0  0  0
  -19.5865   20.9925  -13.2307 C   0  0  0  0  0  0
  -20.4366   21.8961  -12.6111 N   0  0  0  0  0  0
  -20.6188   23.3053  -13.0119 C   0  0  0  0  0  0
  -20.6818   24.3110  -11.8836 C   0  0  0  0  0  0
  -19.5654   24.4633  -11.0479 C   0  0  0  0  0  0
  -19.6204   25.3143   -9.9502 C   0  0  0  0  0  0
  -18.5535   25.4162   -9.1469 F   0  0  0  0  0  0
  -20.7672   26.0423   -9.6653 C   0  0  0  0  0  0
  -21.8741   25.9319  -10.5058 C   0  0  0  0  0  0
  -21.8300   25.0789  -11.6171 C   0  0  0  0  0  0
  -21.1296   21.3288  -11.6188 N   0  0  0  0  0  0
  -20.8486   20.0231  -11.6992 C   0  0  0  0  0  0
  -21.8466   19.2703  -11.1958 O   0  0  0  0  0  0
  -22.5142   19.8814  -10.1088 C   0  0  0  0  0  0
  -24.0446   19.1896   -9.6353 C   0  0  0  0  0  0
  -24.9302   19.4443  -11.1291 C   0  0  0  0  0  0
  -26.2706   20.5447  -11.2457 C   0  0  0  0  0  0
  -27.0222   20.4066  -12.3606 F   0  0  0  0  0  0
  -26.8717   21.5060   -9.8382 C   0  0  0  0  0  0
  -26.1185   21.2129   -8.1842 C   0  0  0  0  0  0
  -24.7140   19.8849   -8.0886 C   0  0  0  0  0  0
  1  2  1  0  0  0
  2  3  2  0  0  0
  2  4  1  0  0  0
  4  5  1  0  0  0
  4  9  1  0  0  0
  5  6  1  0  0  0
  6  7  1  0  0  0
  7  8  1  0  0  0
  7 10  1  0  0  0
  8  9  1  0  0  0
 10 11  2  0  0  0
 10 12  1  0  0  0
 12 13  2  0  0  0
 12 24  1  0  0  0
 13 14  1  0  0  0
 14 15  1  0  0  0
 14 23  1  0  0  0
 15 16  1  0  0  0
 16 17  2  0  0  0
 16 22  1  0  0  0
 17 18  1  0  0  0
 18 19  1  0  0  0
 18 20  2  0  0  0
 20 21  1  0  0  0
 21 22  2  0  0  0
 23 24  2  0  0  0
 24 25  1  0  0  0
 25 26  1  0  0  0
 26 27  1  0  0  0
 27 28  2  0  0  0
 27 33  1  0  0  0
 28 29  1  0  0  0
 29 30  1  0  0  0
 29 31  2  0  0  0
 31 32  1  0  0  0
 32 33  2  0  0  0
M  END
>  <CHROM.0>
-65.55033692,67.75175602,73.49988613,61.84319239,-31.60710377,-175.49607730
82.52804967,-157.16804474

>  <CHROM.1>
178.70857456,28.31976841,-137.28000912,62.16654466,170.48806935,165.59394814
-61.35206698,-20.55374140,20.54119182,-12.77365542,-0.75125837,0.48132856
0.50665094

>  <Name>
F2382-0764

>  <RI>
1.347e+07

>  <Rbt.Current_Directory>
/home/adria/Escritorio/rDock_CMTR_LC/2pxcA_model/inputs_sah

>  <Rbt.Executable>
rbdock ($Id: //depot/dev/client3/rdock/2013.1/src/exe/rbdock.cxx#4 $)

>  <Rbt.Library>
libRbt.so (2013.1, Build901 2013/11/27)

>  <Rbt.Parameter_File>
/home/adria/Escritorio/rDock_2013.1_src/data/scripts/dock.prm

>  <Rbt.Receptor>
sah_rdock.prm

>  <SCORE>
-269.137

>  <SCORE.INTER>
-14.9442

>  <SCORE.INTER.CONST>
1

>  <SCORE.INTER.POLAR>
0

>  <SCORE.INTER.REPUL>
0.167154

>  <SCORE.INTER.ROT>
7

>  <SCORE.INTER.VDW>
-28.18

>  <SCORE.INTER.norm>
-0.452854

>  <SCORE.INTRA>
-247.031

>  <SCORE.INTRA.DIHEDRAL>
-3.4393

>  <SCORE.INTRA.DIHEDRAL.0>
15.2124

>  <SCORE.INTRA.POLAR>
0

>  <SCORE.INTRA.POLAR.0>
0

>  <SCORE.INTRA.REPUL>
0

>  <SCORE.INTRA.REPUL.0>
0

>  <SCORE.INTRA.VDW>
-245.311

>  <SCORE.INTRA.VDW.0>
246.234

>  <SCORE.INTRA.norm>
-7.48578

>  <SCORE.RESTR>
0.0188383

>  <SCORE.RESTR.CAVITY>
0.0188383

>  <SCORE.RESTR.norm>
0.000570858

>  <SCORE.SYSTEM>
-7.18071

>  <SCORE.SYSTEM.CONST>
0

>  <SCORE.SYSTEM.DIHEDRAL>
6.07553

>  <SCORE.SYSTEM.POLAR>
-3.71458

>  <SCORE.SYSTEM.VDW>
2.41109

>  <SCORE.SYSTEM.norm>
-0.217597

>  <SCORE.heavy>
33

>  <SCORE.norm>
-8.15566

$$$$
F2382-0764
  rDOCK(R)          3D
libRbt.so/2013.1/901 2013/11/27
 33 36  0  0  0  0  0  0  0  0999 V2000
  -16.0039   13.8995  -17.9313 C   0  0  0  0  0  0
  -17.1493   14.0903  -16.9884 C   0  0  0  0  0  0
  -17.7375   13.1141  -16.5219 O   0  0  0  0  0  0
  -17.5438   15.3749  -16.6932 N   0  0  0  0  0  0
  -16.9671   16.6073  -17.1668 C   0  0  0  0  0  0
  -18.1211   17.6314  -17.4040 C   0  0  0  0  0  0
  -19.0217   18.2284  -15.8737 N   0  0  0  0  0  0
  -18.8544   16.8165  -15.0954 C   0  0  0  0  0  0
  -18.7194   15.5057  -15.8515 C   0  0  0  0  0  0
  -19.0398   20.1358  -15.3226 C   0  0  0  0  0  0
  -18.4841   21.2005  -15.7612 O   0  0  0  0  0  0
  -20.1014   20.8141  -13.9585 C   0  0  0  0  0  0
  -20.1406   22.1855  -13.4628 C   0  0  0  0  0  0
  -21.4630   22.5275  -13.2231 N   0  0  0  0  0  0
  -21.9428   23.8806  -12.8785 C   0  0  0  0  0  0
  -21.2898   24.5277  -11.6771 C   0  0  0  0  0  0
  -19.9354   24.2689  -11.4199 C   0  0  0  0  0  0
  -19.3275   24.7767  -10.2777 C   0  0  0  0  0  0
  -18.0425   24.4866  -10.0360 F   0  0  0  0  0  0
  -20.0360   25.5612   -9.3782 C   0  0  0  0  0  0
  -21.3732   25.8597   -9.6360 C   0  0  0  0  0  0
  -21.9965   25.3554  -10.7857 C   0  0  0  0  0  0
  -22.2853   21.4872  -13.3909 N   0  0  0  0  0  0
  -21.5180   20.5137  -13.8945 C   0  0  0  0  0  0
  -22.2390   19.6474  -14.6332 O   0  0  0  0  0  0
  -21.6533   18.3627  -14.7183 C   0  0  0  0  0  0
  -21.4761   17.4776  -13.2249 C   0  0  0  0  0  0
  -23.1469   16.9893  -13.0002 C   0  0  0  0  0  0
  -24.1304   17.5915  -11.6997 C   0  0  0  0  0  0
  -25.2755   16.9048  -11.4900 F   0  0  0  0  0  0
  -23.5118   18.7575  -10.4650 C   0  0  0  0  0  0
  -21.7323   19.2272  -10.5095 C   0  0  0  0  0  0
  -20.6543   18.4288  -11.9044 C   0  0  0  0  0  0
  1  2  1  0  0  0
  2  3  2  0  0  0
  2  4  1  0  0  0
  4  5  1  0  0  0
  4  9  1  0  0  0
  5  6  1  0  0  0
  6  7  1  0  0  0
  7  8  1  0  0  0
  7 10  1  0  0  0
  8  9  1  0  0  0
 10 11  2  0  0  0
 10 12  1  0  0  0
 12 13  2  0  0  0
 12 24  1  0  0  0
 13 14  1  0  0  0
 14 15  1  0  0  0
 14 23  1  0  0  0
 15 16  1  0  0  0
 16 17  2  0  0  0
 16 22  1  0  0  0
 17 18  1  0  0  0
 18 19  1  0  0  0
 18 20  2  0  0  0
 20 21  1  0  0  0
 21 22  2  0  0  0
 23 24  2  0  0  0
 24 25  1  0  0  0
 25 26  1  0  0  0
 26 27  1  0  0  0
 27 28  2  0  0  0
 27 33  1  0  0  0
 28 29  1  0  0  0
 29 30  1  0  0  0
 29 31  2  0  0  0
 31 32  1  0  0  0
 32 33  2  0  0  0
M  END
>  <CHROM.0>
179.49449348,-72.72329930,74.09987203,61.20360014,35.02765718,-178.62535221
-158.84310738,-163.82828776

>  <CHROM.1>
-3.84346611,177.69934821,-55.08288470,34.16830416,48.80658278,62.71491000
75.64223650,-20.31188978,19.69938695,-13.55215086,-1.25714892,0.54102613
0.40500155

>  <Name>
F2382-0764

>  <RI>
1.347e+07

>  <Rbt.Current_Directory>
/home/adria/Escritorio/rDock_CMTR_LC/2pxcA_model/inputs_sah

>  <Rbt.Executable>
rbdock ($Id: //depot/dev/client3/rdock/2013.1/src/exe/rbdock.cxx#4 $)

>  <Rbt.Library>
libRbt.so (2013.1, Build901 2013/11/27)

>  <Rbt.Parameter_File>
/home/adria/Escritorio/rDock_2013.1_src/data/scripts/dock.prm

>  <Rbt.Receptor>
sah_rdock.prm

>  <SCORE>
-257.12

>  <SCORE.INTER>
-14.0541

>  <SCORE.INTER.CONST>
1

>  <SCORE.INTER.POLAR>
0

>  <SCORE.INTER.REPUL>
0

>  <SCORE.INTER.ROT>
7

>  <SCORE.INTER.VDW>
-26.4541

>  <SCORE.INTER.norm>
-0.425883

>  <SCORE.INTRA>
-247.469

>  <SCORE.INTRA.DIHEDRAL>
1.79473

>  <SCORE.INTRA.DIHEDRAL.0>
15.2124

>  <SCORE.INTRA.POLAR>
0

>  <SCORE.INTRA.POLAR.0>
0

>  <SCORE.INTRA.REPUL>
0

>  <SCORE.INTRA.REPUL.0>
0

>  <SCORE.INTRA.VDW>
-248.366

>  <SCORE.INTRA.VDW.0>
246.234

>  <SCORE.INTRA.norm>
-7.49906

>  <SCORE.RESTR>
4.88659e-05

>  <SCORE.RESTR.CAVITY>
4.88659e-05

>  <SCORE.RESTR.norm>
1.48079e-06

>  <SCORE.SYSTEM>
4.40354

>  <SCORE.SYSTEM.CONST>
0

>  <SCORE.SYSTEM.DIHEDRAL>
5.2832

>  <SCORE.SYSTEM.POLAR>
-3.72966

>  <SCORE.SYSTEM.REPUL>
0.0380377

>  <SCORE.SYSTEM.VDW>
14.2526

>  <SCORE.SYSTEM.norm>
0.133441

>  <SCORE.heavy>
33

>  <SCORE.norm>
-7.7915

$$$$
F2382-0764
  rDOCK(R)          3D
libRbt.so/2013.1/901 2013/11/27
 33 36  0  0  0  0  0  0  0  0999 V2000
  -14.7299   15.2202  -18.2755 C   0  0  0  0  0  0
  -15.9389   14.7906  -17.5066 C   0  0  0  0  0  0
  -16.1652   13.5938  -17.3252 O   0  0  0  0  0  0
  -16.7988   15.7616  -17.0477 N   0  0  0  0  0  0
  -16.6763   17.1899  -17.1910 C   0  0  0  0  0  0
  -18.1015   17.7859  -17.4163 C   0  0  0  0  0  0
  -19.2802   17.6767  -15.9643 N   0  0  0  0  0  0
  -18.6723   16.2684  -15.4407 C   0  0  0  0  0  0
  -18.0056   15.2899  -16.3926 C   0  0  0  0  0  0
  -20.0402   19.2859  -15.0839 C   0  0  0  0  0  0
  -19.6847   20.5108  -14.9954 O   0  0  0  0  0  0
  -21.6803   19.3186  -14.2143 C   0  0  0  0  0  0
  -22.2452   18.2915  -13.3458 C   0  0  0  0  0  0
  -22.8592   18.9156  -12.2703 N   0  0  0  0  0  0
  -23.3993   18.2263  -11.0817 C   0  0  0  0  0  0
  -24.3636   19.0267  -10.2343 C   0  0  0  0  0  0
  -25.3378   19.8093  -10.8716 C   0  0  0  0  0  0
  -26.1826   20.6237  -10.1266 C   0  0  0  0  0  0
  -27.0812   21.3885  -10.7601 F   0  0  0  0  0  0
  -26.0953   20.6697   -8.7421 C   0  0  0  0  0  0
  -25.1580   19.8708   -8.0887 C   0  0  0  0  0  0
  -24.3021   19.0437   -8.8290 C   0  0  0  0  0  0
  -22.8654   20.2457  -12.4029 N   0  0  0  0  0  0
  -22.1150   20.4921  -13.4829 C   0  0  0  0  0  0
  -21.5555   21.7167  -13.4277 O   0  0  0  0  0  0
  -22.2263   22.5989  -12.5487 C   0  0  0  0  0  0
  -21.6457   24.2433  -12.4888 C   0  0  0  0  0  0
  -19.9836   23.9263  -12.0221 C   0  0  0  0  0  0
  -19.3409   24.3939  -10.4763 C   0  0  0  0  0  0
  -17.9930   24.3513  -10.3865 F   0  0  0  0  0  0
  -20.3243   25.2560   -9.2288 C   0  0  0  0  0  0
  -22.0370   25.7751   -9.6603 C   0  0  0  0  0  0
  -22.6582   25.3384  -11.4404 C   0  0  0  0  0  0
  1  2  1  0  0  0
  2  3  2  0  0  0
  2  4  1  0  0  0
  4  5  1  0  0  0
  4  9  1  0  0  0
  5  6  1  0  0  0
  6  7  1  0  0  0
  7  8  1  0  0  0
  7 10  1  0  0  0
  8  9  1  0  0  0
 10 11  2  0  0  0
 10 12  1  0  0  0
 12 13  2  0  0  0
 12 24  1  0  0  0
 13 14  1  0  0  0
 14 15  1  0  0  0
 14 23  1  0  0  0
 15 16  1  0  0  0
 16 17  2  0  0  0
 16 22  1  0  0  0
 17 18  1  0  0  0
 18 19  1  0  0  0
 18 20  2  0  0  0
 20 21  1  0  0  0
 21 22  2  0  0  0
 23 24  2  0  0  0
 24 25  1  0  0  0
 25 26  1  0  0  0
 26 27  1  0  0  0
 27 28  2  0  0  0
 27 33  1  0  0  0
 28 29  1  0  0  0
 29 30  1  0  0  0
 29 31  2  0  0  0
 31 32  1  0  0  0
 32 33  2  0  0  0
M  END
>  <CHROM.0>
171.37691896,-166.56429415,74.43646162,65.22943909,-31.21571109,177.48731033
84.25741534,-162.07402254

>  <CHROM.1>
-23.04414067,40.59754153,-162.96882465,42.17245046,-176.92297207,-175.91599067
-58.09366658,-21.01688813,19.88902852,-13.03718837,-0.84735803,0.49946048
0.41775141

>  <Name>
F2382-0764

>  <RI>
1.347e+07

>  <Rbt.Current_Directory>
/home/adria/Escritorio/rDock_CMTR_LC/2pxcA_model/inputs_sah

>  <Rbt.Executable>
rbdock ($Id: //depot/dev/client3/rdock/2013.1/src/exe/rbdock.cxx#4 $)

>  <Rbt.Library>
libRbt.so (2013.1, Build901 2013/11/27)

>  <Rbt.Parameter_File>
/home/adria/Escritorio/rDock_2013.1_src/data/scripts/dock.prm

>  <Rbt.Receptor>
sah_rdock.prm

>  <SCORE>
-258.404

>  <SCORE.INTER>
-6.01938

>  <SCORE.INTER.CONST>
1

>  <SCORE.INTER.POLAR>
0

>  <SCORE.INTER.REPUL>
0.0337292

>  <SCORE.INTER.ROT>
7

>  <SCORE.INTER.VDW>
-18.588

>  <SCORE.INTER.norm>
-0.182405

>  <SCORE.INTRA>
-246.545

>  <SCORE.INTRA.DIHEDRAL>
-6.16597

>  <SCORE.INTRA.DIHEDRAL.0>
15.2124

>  <SCORE.INTRA.POLAR>
0

>  <SCORE.INTRA.POLAR.0>
0

>  <SCORE.INTRA.REPUL>
0

>  <SCORE.INTRA.REPUL.0>
0

>  <SCORE.INTRA.VDW>
-243.462

>  <SCORE.INTRA.VDW.0>
246.234

>  <SCORE.INTRA.norm>
-7.47105

>  <SCORE.RESTR>
0

>  <SCORE.RESTR.CAVITY>
0

>  <SCORE.RESTR.norm>
0

>  <SCORE.SYSTEM>
-5.83973

>  <SCORE.SYSTEM.CONST>
0

>  <SCORE.SYSTEM.DIHEDRAL>
6.94788

>  <SCORE.SYSTEM.POLAR>
-3.70388

>  <SCORE.SYSTEM.VDW>
3.27951

>  <SCORE.SYSTEM.norm>
-0.176962

>  <SCORE.heavy>
33

>  <SCORE.norm>
-7.83042

$$$$
F2382-0764
  rDOCK(R)          3D
libRbt.so/2013.1/901 2013/11/27
 33 36  0  0  0  0  0  0  0  0999 V2000
  -16.4885   11.5149  -16.4593 C   0  0  0  0  0  0
  -17.3143   12.3530  -17.3828 C   0  0  0  0  0  0
  -17.6892   11.8984  -18.4642 O   0  0  0  0  0  0
  -17.6053   13.6441  -17.0070 N   0  0  0  0  0  0
  -17.2297   14.3159  -15.7891 C   0  0  0  0  0  0
  -16.9058   15.8049  -16.1282 C   0  0  0  0  0  0
  -18.3529   16.8586  -16.6806 N   0  0  0  0  0  0
  -19.1023   15.6278  -17.4227 C   0  0  0  0  0  0
  -18.3257   14.4466  -17.9791 C   0  0  0  0  0  0
  -18.9552   18.4580  -15.6699 C   0  0  0  0  0  0
  -18.8918   19.7195  -15.8683 O   0  0  0  0  0  0
  -19.9507   18.3847  -14.1043 C   0  0  0  0  0  0
  -19.7939   19.2121  -12.9132 C   0  0  0  0  0  0
  -21.0547   19.5509  -12.4454 N   0  0  0  0  0  0
  -21.3294   20.5168  -11.3631 C   0  0  0  0  0  0
  -21.4170   21.9686  -11.7789 C   0  0  0  0  0  0
  -20.4490   22.8683  -11.3086 C   0  0  0  0  0  0
  -20.5490   24.2237  -11.6000 C   0  0  0  0  0  0
  -19.6318   25.0680  -11.1102 F   0  0  0  0  0  0
  -21.5924   24.7149  -12.3723 C   0  0  0  0  0  0
  -22.5435   23.8306  -12.8794 C   0  0  0  0  0  0
  -22.4520   22.4613  -12.5944 C   0  0  0  0  0  0
  -22.0228   18.9330  -13.1292 N   0  0  0  0  0  0
  -21.3983   18.3204  -14.1417 C   0  0  0  0  0  0
  -22.2163   18.1543  -15.1996 O   0  0  0  0  0  0
  -21.5325   17.7913  -16.3835 C   0  0  0  0  0  0
  -22.4615   17.7907  -17.8606 C   0  0  0  0  0  0
  -22.9246   19.4834  -17.8894 C   0  0  0  0  0  0
  -24.5703   20.0063  -17.6906 C   0  0  0  0  0  0
  -24.8013   21.2935  -18.0319 F   0  0  0  0  0  0
  -25.9407   18.8523  -17.4520 C   0  0  0  0  0  0
  -25.6001   17.0460  -17.5526 C   0  0  0  0  0  0
  -23.7700   16.5218  -17.9008 C   0  0  0  0  0  0
  1  2  1  0  0  0
  2  3  2  0  0  0
  2  4  1  0  0  0
  4  5  1  0  0  0
  4  9  1  0  0  0
  5  6  1  0  0  0
  6  7  1  0  0  0
  7  8  1  0  0  0
  7 10  1  0  0  0
  8  9  1  0  0  0
 10 11  2  0  0  0
 10 12  1  0  0  0
 12 13  2  0  0  0
 12 24  1  0  0  0
 13 14  1  0  0  0
 14 15  1  0  0  0
 14 23  1  0  0  0
 15 16  1  0  0  0
 16 17  2  0  0  0
 16 22  1  0  0  0
 17 18  1  0  0  0
 18 19  1  0  0  0
 18 20  2  0  0  0
 20 21  1  0  0  0
 21 22  2  0  0  0
 23 24  2  0  0  0
 24 25  1  0  0  0
 25 26  1  0  0  0
 26 27  1  0  0  0
 27 28  2  0  0  0
 27 33  1  0  0  0
 28 29  1  0  0  0
 29 30  1  0  0  0
 29 31  2  0  0  0
 31 32  1  0  0  0
 32 33  2  0  0  0
M  END
>  <CHROM.0>
-64.96311917,-73.80970725,73.04257171,-64.44840811,-28.46351881,57.42333494
-38.03102935,-162.67757436

>  <CHROM.1>
108.00076918,139.39956052,85.50851278,-114.43002265,10.67500404,-170.89691631
60.75881709,-20.71792546,18.54070644,-15.25039055,-1.18716629,-0.49835874
0.65971629

>  <Name>
F2382-0764

>  <RI>
1.347e+07

>  <Rbt.Current_Directory>
/home/adria/Escritorio/rDock_CMTR_LC/2pxcA_model/inputs_sah

>  <Rbt.Executable>
rbdock ($Id: //depot/dev/client3/rdock/2013.1/src/exe/rbdock.cxx#4 $)

>  <Rbt.Library>
libRbt.so (2013.1, Build901 2013/11/27)

>  <Rbt.Parameter_File>
/home/adria/Escritorio/rDock_2013.1_src/data/scripts/dock.prm

>  <Rbt.Receptor>
sah_rdock.prm

>  <SCORE>
-260.875

>  <SCORE.INTER>
-6.36945

>  <SCORE.INTER.CONST>
1

>  <SCORE.INTER.POLAR>
0

>  <SCORE.INTER.REPUL>
0.0641554

>  <SCORE.INTER.ROT>
7

>  <SCORE.INTER.VDW>
-19.0902

>  <SCORE.INTER.norm>
-0.193014

>  <SCORE.INTRA>
-246.936

>  <SCORE.INTRA.DIHEDRAL>
-0.35184

>  <SCORE.INTRA.DIHEDRAL.0>
15.2124

>  <SCORE.INTRA.POLAR>
0

>  <SCORE.INTRA.POLAR.0>
0

>  <SCORE.INTRA.REPUL>
0

>  <SCORE.INTRA.REPUL.0>
0

>  <SCORE.INTRA.VDW>
-246.76

>  <SCORE.INTRA.VDW.0>
246.234

>  <SCORE.INTRA.norm>
-7.4829

>  <SCORE.RESTR>
0

>  <SCORE.RESTR.CAVITY>
0

>  <SCORE.RESTR.norm>
0

>  <SCORE.SYSTEM>
-7.56957

>  <SCORE.SYSTEM.CONST>
0

>  <SCORE.SYSTEM.DIHEDRAL>
6.91892

>  <SCORE.SYSTEM.POLAR>
-4.09528

>  <SCORE.SYSTEM.REPUL>
0.0399493

>  <SCORE.SYSTEM.VDW>
2.69518

>  <SCORE.SYSTEM.norm>
-0.229381

>  <SCORE.heavy>
33

>  <SCORE.norm>
-7.9053

$$$$
F2382-0764
  rDOCK(R)          3D
libRbt.so/2013.1/901 2013/11/27
 33 36  0  0  0  0  0  0  0  0999 V2000
  -16.6351   14.6850  -16.5867 C   0  0  0  0  0  0
  -18.0352   15.2109  -16.5644 C   0  0  0  0  0  0
  -18.9794   14.4724  -16.8470 O   0  0  0  0  0  0
  -18.2283   16.5386  -16.2596 N   0  0  0  0  0  0
  -17.2309   17.5219  -15.9224 C   0  0  0  0  0  0
  -17.6523   18.8865  -16.5529 C   0  0  0  0  0  0
  -19.1899   19.6846  -15.8399 N   0  0  0  0  0  0
  -19.9124   18.2665  -15.5336 C   0  0  0  0  0  0
  -19.5942   17.0229  -16.3462 C   0  0  0  0  0  0
  -19.1554   21.4584  -14.9483 C   0  0  0  0  0  0
  -18.5815   22.5740  -15.1947 O   0  0  0  0  0  0
  -20.1806   21.8959  -13.4634 C   0  0  0  0  0  0
  -20.4446   23.2269  -12.9280 C   0  0  0  0  0  0
  -21.7756   23.2890  -12.5435 N   0  0  0  0  0  0
  -22.4808   24.5127  -12.1133 C   0  0  0  0  0  0
  -23.7708   24.2997  -11.3524 C   0  0  0  0  0  0
  -24.9879   24.3811  -12.0450 C   0  0  0  0  0  0
  -26.1936   24.2772  -11.3613 C   0  0  0  0  0  0
  -27.3428   24.3933  -12.0394 F   0  0  0  0  0  0
  -26.2232   24.0745   -9.9885 C   0  0  0  0  0  0
  -25.0234   23.9541   -9.2887 C   0  0  0  0  0  0
  -23.8012   24.0549   -9.9675 C   0  0  0  0  0  0
  -22.3823   22.1031  -12.6544 N   0  0  0  0  0  0
  -21.4914   21.3109  -13.2618 C   0  0  0  0  0  0
  -22.0960   20.3198  -13.9459 O   0  0  0  0  0  0
  -23.3522   19.9546  -13.4080 C   0  0  0  0  0  0
  -24.3962   18.9963  -14.4262 C   0  0  0  0  0  0
  -23.1843   18.3357  -15.5104 C   0  0  0  0  0  0
  -23.1087   18.7551  -17.1955 C   0  0  0  0  0  0
  -22.3249   17.9492  -17.9457 F   0  0  0  0  0  0
  -24.2777   19.8933  -17.9731 C   0  0  0  0  0  0
  -25.6831   20.5342  -16.9715 C   0  0  0  0  0  0
  -25.7893   19.9351  -15.1344 C   0  0  0  0  0  0
  1  2  1  0  0  0
  2  3  2  0  0  0
  2  4  1  0  0  0
  4  5  1  0  0  0
  4  9  1  0  0  0
  5  6  1  0  0  0
  6  7  1  0  0  0
  7  8  1  0  0  0
  7 10  1  0  0  0
  8  9  1  0  0  0
 10 11  2  0  0  0
 10 12  1  0  0  0
 12 13  2  0  0  0
 12 24  1  0  0  0
 13 14  1  0  0  0
 14 15  1  0  0  0
 14 23  1  0  0  0
 15 16  1  0  0  0
 16 17  2  0  0  0
 16 22  1  0  0  0
 17 18  1  0  0  0
 18 19  1  0  0  0
 18 20  2  0  0  0
 20 21  1  0  0  0
 21 22  2  0  0  0
 23 24  2  0  0  0
 24 25  1  0  0  0
 25 26  1  0  0  0
 26 27  1  0  0  0
 27 28  2  0  0  0
 27 33  1  0  0  0
 28 29  1  0  0  0
 29 30  1  0  0  0
 29 31  2  0  0  0
 31 32  1  0  0  0
 32 33  2  0  0  0
M  END
>  <CHROM.0>
-177.17802549,-73.05724987,-126.94297751,61.49404752,-30.90915179,-179.65189072
-156.93928475,-163.89470187

>  <CHROM.1>
42.09884047,-165.32870220,-162.16084378,-97.83677502,176.30573011,164.58202350
21.49168601,-21.89687440,20.45155405,-14.36805325,-0.95284280,-0.10414550
0.69578669

>  <Name>
F2382-0764

>  <RI>
1.347e+07

>  <Rbt.Current_Directory>
/home/adria/Escritorio/rDock_CMTR_LC/2pxcA_model/inputs_sah

>  <Rbt.Executable>
rbdock ($Id: //depot/dev/client3/rdock/2013.1/src/exe/rbdock.cxx#4 $)

>  <Rbt.Library>
libRbt.so (2013.1, Build901 2013/11/27)

>  <Rbt.Parameter_File>
/home/adria/Escritorio/rDock_2013.1_src/data/scripts/dock.prm

>  <Rbt.Receptor>
sah_rdock.prm

>  <SCORE>
-265.746

>  <SCORE.INTER>
-10.9372

>  <SCORE.INTER.CONST>
1

>  <SCORE.INTER.POLAR>
-0.0704469

>  <SCORE.INTER.REPUL>
0.00632292

>  <SCORE.INTER.ROT>
7

>  <SCORE.INTER.VDW>
-23.1293

>  <SCORE.INTER.norm>
-0.33143

>  <SCORE.INTRA>
-247.905

>  <SCORE.INTRA.DIHEDRAL>
-5.44349

>  <SCORE.INTRA.DIHEDRAL.0>
15.2124

>  <SCORE.INTRA.POLAR>
0

>  <SCORE.INTRA.POLAR.0>
0

>  <SCORE.INTRA.REPUL>
0

>  <SCORE.INTRA.REPUL.0>
0

>  <SCORE.INTRA.VDW>
-245.183

>  <SCORE.INTRA.VDW.0>
246.234

>  <SCORE.INTRA.norm>
-7.51228

>  <SCORE.RESTR>
0

>  <SCORE.RESTR.CAVITY>
0

>  <SCORE.RESTR.norm>
0

>  <SCORE.SYSTEM>
-6.9033

>  <SCORE.SYSTEM.CONST>
0

>  <SCORE.SYSTEM.DIHEDRAL>
9.30035

>  <SCORE.SYSTEM.POLAR>
-4.55947

>  <SCORE.SYSTEM.REPUL>
0.0386376

>  <SCORE.SYSTEM.VDW>
3.75552

>  <SCORE.SYSTEM.norm>
-0.209191

>  <SCORE.heavy>
33

>  <SCORE.norm>
-8.0529

$$$$
F2382-0764
  rDOCK(R)          3D
libRbt.so/2013.1/901 2013/11/27
 33 36  0  0  0  0  0  0  0  0999 V2000
  -14.6505   15.0217  -18.7430 C   0  0  0  0  0  0
  -16.0332   14.7101  -18.2648 C   0  0  0  0  0  0
  -16.4695   13.5607  -18.3362 O   0  0  0  0  0  0
  -16.8053   15.7428  -17.7847 N   0  0  0  0  0  0
  -16.4415   17.1304  -17.6520 C   0  0  0  0  0  0
  -17.6913   18.0016  -17.9929 C   0  0  0  0  0  0
  -19.1235   17.8956  -16.7900 N   0  0  0  0  0  0
  -18.8466   16.3390  -16.4332 C   0  0  0  0  0  0
  -18.1709   15.4067  -17.4243 C   0  0  0  0  0  0
  -19.7800   19.4686  -15.7717 C   0  0  0  0  0  0
  -19.4543   20.7041  -15.7233 O   0  0  0  0  0  0
  -21.2554   19.4361  -14.6451 C   0  0  0  0  0  0
  -21.7046   18.3334  -13.8023 C   0  0  0  0  0  0
  -22.1156   18.8519  -12.5836 N   0  0  0  0  0  0
  -22.4777   18.0514  -11.3970 C   0  0  0  0  0  0
  -23.3483   18.7446  -10.3722 C   0  0  0  0  0  0
  -22.8594   19.8934   -9.7329 C   0  0  0  0  0  0
  -23.5964   20.5040   -8.7249 C   0  0  0  0  0  0
  -23.0926   21.5791   -8.1052 F   0  0  0  0  0  0
  -24.8334   20.0057   -8.3402 C   0  0  0  0  0  0
  -25.3522   18.8864   -8.9896 C   0  0  0  0  0  0
  -24.6194   18.2634  -10.0092 C   0  0  0  0  0  0
  -22.1006   20.1885  -12.5799 N   0  0  0  0  0  0
  -21.5278   20.5341  -13.7387 C   0  0  0  0  0  0
  -20.9277   21.7376  -13.6545 O   0  0  0  0  0  0
  -21.4758   22.5665  -12.6478 C   0  0  0  0  0  0
  -20.8646   24.1981  -12.5520 C   0  0  0  0  0  0
  -19.7153   23.9799  -11.2436 C   0  0  0  0  0  0
  -19.9203   24.7221   -9.6852 C   0  0  0  0  0  0
  -18.8207   24.7041   -8.8996 F   0  0  0  0  0  0
  -21.3238   25.7892   -9.2876 C   0  0  0  0  0  0
  -22.5164   26.2123  -10.6247 C   0  0  0  0  0  0
  -22.1697   25.4584  -12.3731 C   0  0  0  0  0  0
  1  2  1  0  0  0
  2  3  2  0  0  0
  2  4  1  0  0  0
  4  5  1  0  0  0
  4  9  1  0  0  0
  5  6  1  0  0  0
  6  7  1  0  0  0
  7  8  1  0  0  0
  7 10  1  0  0  0
  8  9  1  0  0  0
 10 11  2  0  0  0
 10 12  1  0  0  0
 12 13  2  0  0  0
 12 24  1  0  0  0
 13 14  1  0  0  0
 14 15  1  0  0  0
 14 23  1  0  0  0
 15 16  1  0  0  0
 16 17  2  0  0  0
 16 22  1  0  0  0
 17 18  1  0  0  0
 18 19  1  0  0  0
 18 20  2  0  0  0
 20 21  1  0  0  0
 21 22  2  0  0  0
 23 24  2  0  0  0
 24 25  1  0  0  0
 25 26  1  0  0  0
 26 27  1  0  0  0
 27 28  2  0  0  0
 27 33  1  0  0  0
 28 29  1  0  0  0
 29 30  1  0  0  0
 29 31  2  0  0  0
 31 32  1  0  0  0
 32 33  2  0  0  0
M  END
>  <CHROM.0>
-59.94720234,65.67102785,-46.74945628,67.47477096,-29.55103529,-59.82228182
-157.64717425,-164.55581041

>  <CHROM.1>
1.24822388,34.52930831,-158.80257237,-61.59065953,179.31072490,-174.68797315
-98.77347707,-20.53154214,19.88878282,-13.18529662,-0.90117082,0.76155743
0.36342696

>  <Name>
F2382-0764

>  <RI>
1.347e+07

>  <Rbt.Current_Directory>
/home/adria/Escritorio/rDock_CMTR_LC/2pxcA_model/inputs_sah

>  <Rbt.Executable>
rbdock ($Id: //depot/dev/client3/rdock/2013.1/src/exe/rbdock.cxx#4 $)

>  <Rbt.Library>
libRbt.so (2013.1, Build901 2013/11/27)

>  <Rbt.Parameter_File>
/home/adria/Escritorio/rDock_2013.1_src/data/scripts/dock.prm

>  <Rbt.Receptor>
sah_rdock.prm

>  <SCORE>
-266.201

>  <SCORE.INTER>
-11.315

>  <SCORE.INTER.CONST>
1

>  <SCORE.INTER.POLAR>
0

>  <SCORE.INTER.REPUL>
0.0855638

>  <SCORE.INTER.ROT>
7

>  <SCORE.INTER.VDW>
-24.1428

>  <SCORE.INTER.norm>
-0.342878

>  <SCORE.INTRA>
-247.567

>  <SCORE.INTRA.DIHEDRAL>
-6.96869

>  <SCORE.INTRA.DIHEDRAL.0>
15.2124

>  <SCORE.INTRA.POLAR>
0

>  <SCORE.INTRA.POLAR.0>
0

>  <SCORE.INTRA.REPUL>
0

>  <SCORE.INTRA.REPUL.0>
0

>  <SCORE.INTRA.VDW>
-244.083

>  <SCORE.INTRA.VDW.0>
246.234

>  <SCORE.INTRA.norm>
-7.50204

>  <SCORE.RESTR>
0

>  <SCORE.RESTR.CAVITY>
0

>  <SCORE.RESTR.norm>
0

>  <SCORE.SYSTEM>
-7.319

>  <SCORE.SYSTEM.CONST>
0

>  <SCORE.SYSTEM.DIHEDRAL>
5.96936

>  <SCORE.SYSTEM.POLAR>
-3.73235

>  <SCORE.SYSTEM.VDW>
2.38632

>  <SCORE.SYSTEM.norm>
-0.221788

>  <SCORE.heavy>
33

>  <SCORE.norm>
-8.06671

$$$$
F2382-0764
  rDOCK(R)          3D
libRbt.so/2013.1/901 2013/11/27
 33 36  0  0  0  0  0  0  0  0999 V2000
  -14.4901   19.7578  -17.2586 C   0  0  0  0  0  0
  -15.2634   18.4779  -17.2931 C   0  0  0  0  0  0
  -14.8054   17.4924  -17.8725 O   0  0  0  0  0  0
  -16.5033   18.4489  -16.6976 N   0  0  0  0  0  0
  -17.1729   19.5157  -15.9982 C   0  0  0  0  0  0
  -18.6980   19.4351  -16.3215 C   0  0  0  0  0  0
  -19.6071   17.9438  -15.6441 N   0  0  0  0  0  0
  -18.3269   16.9615  -15.7971 C   0  0  0  0  0  0
  -17.2540   17.2146  -16.8424 C   0  0  0  0  0  0
  -21.0999   18.1040  -14.3449 C   0  0  0  0  0  0
  -22.2452   17.5487  -14.2231 O   0  0  0  0  0  0
  -21.0350   19.1462  -12.8096 C   0  0  0  0  0  0
  -20.0629   20.1830  -12.4811 C   0  0  0  0  0  0
  -20.7353   21.2449  -11.8951 N   0  0  0  0  0  0
  -20.1390   22.5572  -11.5755 C   0  0  0  0  0  0
  -21.0435   23.7562  -11.7558 C   0  0  0  0  0  0
  -22.0003   23.7357  -12.7814 C   0  0  0  0  0  0
  -22.7878   24.8537  -13.0301 C   0  0  0  0  0  0
  -23.6699   24.8222  -14.0375 F   0  0  0  0  0  0
  -22.6600   26.0043  -12.2643 C   0  0  0  0  0  0
  -21.7401   26.0303  -11.2169 C   0  0  0  0  0  0
  -20.9420   24.9083  -10.9549 C   0  0  0  0  0  0
  -22.0265   20.9658  -11.6912 N   0  0  0  0  0  0
  -22.2273   19.7864  -12.2901 C   0  0  0  0  0  0
  -23.5098   19.6398  -12.6768 O   0  0  0  0  0  0
  -24.4159   20.4115  -11.9125 C   0  0  0  0  0  0
  -24.3374   22.1434  -12.1108 C   0  0  0  0  0  0
  -24.0423   22.5937  -10.4403 C   0  0  0  0  0  0
  -25.2041   23.4684   -9.4883 C   0  0  0  0  0  0
  -24.7179   23.9923   -8.3412 F   0  0  0  0  0  0
  -26.8037   23.9981  -10.1420 C   0  0  0  0  0  0
  -27.1655   23.7141  -11.9246 C   0  0  0  0  0  0
  -25.7845   22.8475  -12.9673 C   0  0  0  0  0  0
  1  2  1  0  0  0
  2  3  2  0  0  0
  2  4  1  0  0  0
  4  5  1  0  0  0
  4  9  1  0  0  0
  5  6  1  0  0  0
  6  7  1  0  0  0
  7  8  1  0  0  0
  7 10  1  0  0  0
  8  9  1  0  0  0
 10 11  2  0  0  0
 10 12  1  0  0  0
 12 13  2  0  0  0
 12 24  1  0  0  0
 13 14  1  0  0  0
 14 15  1  0  0  0
 14 23  1  0  0  0
 15 16  1  0  0  0
 16 17  2  0  0  0
 16 22  1  0  0  0
 17 18  1  0  0  0
 18 19  1  0  0  0
 18 20  2  0  0  0
 20 21  1  0  0  0
 21 22  2  0  0  0
 23 24  2  0  0  0
 24 25  1  0  0  0
 25 26  1  0  0  0
 26 27  1  0  0  0
 27 28  2  0  0  0
 27 33  1  0  0  0
 28 29  1  0  0  0
 29 30  1  0  0  0
 29 31  2  0  0  0
 31 32  1  0  0  0
 32 33  2  0  0  0
M  END
>  <CHROM.0>
175.56739356,-72.93352816,-127.02466761,64.52952331,169.43890621,-179.31830287
-36.24210386,-163.67482347

>  <CHROM.1>
136.76307783,14.27739284,143.99041769,-33.28985848,178.64454351,68.79280555
-122.75555303,-21.26737503,21.24132780,-13.27422673,-0.68732997,0.45485286
0.29086313

>  <Name>
F2382-0764

>  <RI>
1.347e+07

>  <Rbt.Current_Directory>
/home/adria/Escritorio/rDock_CMTR_LC/2pxcA_model/inputs_sah

>  <Rbt.Executable>
rbdock ($Id: //depot/dev/client3/rdock/2013.1/src/exe/rbdock.cxx#4 $)

>  <Rbt.Library>
libRbt.so (2013.1, Build901 2013/11/27)

>  <Rbt.Parameter_File>
/home/adria/Escritorio/rDock_2013.1_src/data/scripts/dock.prm

>  <Rbt.Receptor>
sah_rdock.prm

>  <SCORE>
-263.659

>  <SCORE.INTER>
-12.9369

>  <SCORE.INTER.CONST>
1

>  <SCORE.INTER.POLAR>
0

>  <SCORE.INTER.REPUL>
0

>  <SCORE.INTER.ROT>
7

>  <SCORE.INTER.VDW>
-25.3369

>  <SCORE.INTER.norm>
-0.392026

>  <SCORE.INTRA>
-249.009

>  <SCORE.INTRA.DIHEDRAL>
-7.06369

>  <SCORE.INTRA.DIHEDRAL.0>
15.2124

>  <SCORE.INTRA.POLAR>
0

>  <SCORE.INTRA.POLAR.0>
0

>  <SCORE.INTRA.REPUL>
0

>  <SCORE.INTRA.REPUL.0>
0

>  <SCORE.INTRA.VDW>
-245.478

>  <SCORE.INTRA.VDW.0>
246.234

>  <SCORE.INTRA.norm>
-7.54574

>  <SCORE.RESTR>
0

>  <SCORE.RESTR.CAVITY>
0

>  <SCORE.RESTR.norm>
0

>  <SCORE.SYSTEM>
-1.71219

>  <SCORE.SYSTEM.CONST>
0

>  <SCORE.SYSTEM.DIHEDRAL>
6.6105

>  <SCORE.SYSTEM.POLAR>
-4.42068

>  <SCORE.SYSTEM.REPUL>
0.0384166

>  <SCORE.SYSTEM.VDW>
9.8208

>  <SCORE.SYSTEM.norm>
-0.0518845

>  <SCORE.heavy>
33

>  <SCORE.norm>
-7.98965

$$$$
F2382-0764
  rDOCK(R)          3D
libRbt.so/2013.1/901 2013/11/27
 33 36  0  0  0  0  0  0  0  0999 V2000
  -15.4687   17.7211  -17.8596 C   0  0  0  0  0  0
  -16.1971   16.6028  -17.1841 C   0  0  0  0  0  0
  -15.7670   15.4510  -17.2545 O   0  0  0  0  0  0
  -17.3682   16.8929  -16.5229 N   0  0  0  0  0  0
  -17.9992   18.1784  -16.3657 C   0  0  0  0  0  0
  -19.5457   17.9807  -16.4457 C   0  0  0  0  0  0
  -20.3294   17.0281  -15.0357 N   0  0  0  0  0  0
  -19.0386   16.0708  -14.8249 C   0  0  0  0  0  0
  -18.0870   15.7602  -15.9677 C   0  0  0  0  0  0
  -21.6868   17.8318  -13.8299 C   0  0  0  0  0  0
  -22.8392   17.4699  -13.4107 O   0  0  0  0  0  0
  -21.4338   19.4096  -12.8845 C   0  0  0  0  0  0
  -20.4191   20.4313  -13.1179 C   0  0  0  0  0  0
  -21.0079   21.6774  -12.9640 N   0  0  0  0  0  0
  -20.3645   22.9676  -13.2826 C   0  0  0  0  0  0
  -20.6082   24.0892  -12.2973 C   0  0  0  0  0  0
  -19.7870   24.1869  -11.1643 C   0  0  0  0  0  0
  -20.0379   25.1516  -10.1957 C   0  0  0  0  0  0
  -19.2613   25.2024   -9.1056 F   0  0  0  0  0  0
  -21.0895   26.0472  -10.3326 C   0  0  0  0  0  0
  -21.8939   25.9891  -11.4699 C   0  0  0  0  0  0
  -21.6493   25.0222  -12.4547 C   0  0  0  0  0  0
  -22.2698   21.5828  -12.5337 N   0  0  0  0  0  0
  -22.5511   20.2751  -12.5625 C   0  0  0  0  0  0
  -23.8712   20.0563  -12.7218 O   0  0  0  0  0  0
  -24.6324   21.2471  -12.7786 C   0  0  0  0  0  0
  -24.3538   22.4207  -11.5176 C   0  0  0  0  0  0
  -24.6859   21.4052  -10.1251 C   0  0  0  0  0  0
  -26.0537   21.6636   -9.0841 C   0  0  0  0  0  0
  -26.0044   20.9997   -7.9079 F   0  0  0  0  0  0
  -27.2376   23.0050   -9.3402 C   0  0  0  0  0  0
  -26.9116   24.2250  -10.6798 C   0  0  0  0  0  0
  -25.3067   23.9605  -11.7284 C   0  0  0  0  0  0
  1  2  1  0  0  0
  2  3  2  0  0  0
  2  4  1  0  0  0
  4  5  1  0  0  0
  4  9  1  0  0  0
  5  6  1  0  0  0
  6  7  1  0  0  0
  7  8  1  0  0  0
  7 10  1  0  0  0
  8  9  1  0  0  0
 10 11  2  0  0  0
 10 12  1  0  0  0
 12 13  2  0  0  0
 12 24  1  0  0  0
 13 14  1  0  0  0
 14 15  1  0  0  0
 14 23  1  0  0  0
 15 16  1  0  0  0
 16 17  2  0  0  0
 16 22  1  0  0  0
 17 18  1  0  0  0
 18 19  1  0  0  0
 18 20  2  0  0  0
 20 21  1  0  0  0
 21 22  2  0  0  0
 23 24  2  0  0  0
 24 25  1  0  0  0
 25 26  1  0  0  0
 26 27  1  0  0  0
 27 28  2  0  0  0
 27 33  1  0  0  0
 28 29  1  0  0  0
 29 30  1  0  0  0
 29 31  2  0  0  0
 31 32  1  0  0  0
 32 33  2  0  0  0
M  END
>  <CHROM.0>
-178.77583935,60.00023286,72.45068928,-145.10213158,-32.30310062,175.02955359
-157.98046188,-162.89940437

>  <CHROM.1>
130.56495422,16.61064527,-139.03103632,84.92160751,-157.72610916,-49.77575033
-56.50459177,-21.34891146,20.78767557,-12.86281330,-0.89675049,0.39962905
0.43941008

>  <Name>
F2382-0764

>  <RI>
1.347e+07

>  <Rbt.Current_Directory>
/home/adria/Escritorio/rDock_CMTR_LC/2pxcA_model/inputs_sah

>  <Rbt.Executable>
rbdock ($Id: //depot/dev/client3/rdock/2013.1/src/exe/rbdock.cxx#4 $)

>  <Rbt.Library>
libRbt.so (2013.1, Build901 2013/11/27)

>  <Rbt.Parameter_File>
/home/adria/Escritorio/rDock_2013.1_src/data/scripts/dock.prm

>  <Rbt.Receptor>
sah_rdock.prm

>  <SCORE>
-259.279

>  <SCORE.INTER>
-11.0733

>  <SCORE.INTER.CONST>
1

>  <SCORE.INTER.POLAR>
0

>  <SCORE.INTER.REPUL>
0

>  <SCORE.INTER.ROT>
7

>  <SCORE.INTER.VDW>
-23.4733

>  <SCORE.INTER.norm>
-0.335554

>  <SCORE.INTRA>
-244.607

>  <SCORE.INTRA.DIHEDRAL>
-5.83445

>  <SCORE.INTRA.DIHEDRAL.0>
15.2124

>  <SCORE.INTRA.POLAR>
0

>  <SCORE.INTRA.POLAR.0>
0

>  <SCORE.INTRA.REPUL>
0

>  <SCORE.INTRA.REPUL.0>
0

>  <SCORE.INTRA.VDW>
-241.69

>  <SCORE.INTRA.VDW.0>
246.234

>  <SCORE.INTRA.norm>
-7.41233

>  <SCORE.RESTR>
0

>  <SCORE.RESTR.CAVITY>
0

>  <SCORE.RESTR.norm>
0

>  <SCORE.SYSTEM>
-3.59923

>  <SCORE.SYSTEM.CONST>
0

>  <SCORE.SYSTEM.DIHEDRAL>
9.60166

>  <SCORE.SYSTEM.POLAR>
-3.72097

>  <SCORE.SYSTEM.VDW>
4.25125

>  <SCORE.SYSTEM.norm>
-0.109068

>  <SCORE.heavy>
33

>  <SCORE.norm>
-7.85695

$$$$
F2382-0764
  rDOCK(R)          3D
libRbt.so/2013.1/901 2013/11/27
 33 36  0  0  0  0  0  0  0  0999 V2000
  -14.7484   15.2402  -17.6982 C   0  0  0  0  0  0
  -15.9373   15.9260  -18.2927 C   0  0  0  0  0  0
  -16.4712   15.4740  -19.3062 O   0  0  0  0  0  0
  -16.3856   17.0842  -17.7007 N   0  0  0  0  0  0
  -15.8617   17.7375  -16.5283 C   0  0  0  0  0  0
  -15.9518   19.2810  -16.7434 C   0  0  0  0  0  0
  -17.6783   20.0053  -16.8091 N   0  0  0  0  0  0
  -18.3182   18.6893  -17.5060 C   0  0  0  0  0  0
  -17.4799   17.7634  -18.3709 C   0  0  0  0  0  0
  -18.3237   21.3453  -15.4937 C   0  0  0  0  0  0
  -18.1394   22.5997  -15.3289 O   0  0  0  0  0  0
  -19.5656   20.9811  -14.1624 C   0  0  0  0  0  0
  -20.3038   21.9421  -13.3503 C   0  0  0  0  0  0
  -21.6088   21.4924  -13.2164 N   0  0  0  0  0  0
  -22.7160   22.2612  -12.6140 C   0  0  0  0  0  0
  -22.3480   23.6116  -12.0400 C   0  0  0  0  0  0
  -21.6713   23.6650  -10.8125 C   0  0  0  0  0  0
  -21.3955   24.8893  -10.2150 C   0  0  0  0  0  0
  -20.7796   24.9134   -9.0259 F   0  0  0  0  0  0
  -21.7649   26.0817  -10.8219 C   0  0  0  0  0  0
  -22.4055   26.0495  -12.0599 C   0  0  0  0  0  0
  -22.6869   24.8211  -12.6734 C   0  0  0  0  0  0
  -21.7747   20.2780  -13.7496 N   0  0  0  0  0  0
  -20.6203   20.0088  -14.3702 C   0  0  0  0  0  0
  -20.7972   19.1498  -15.3933 O   0  0  0  0  0  0
  -22.0676   18.5279  -15.3880 C   0  0  0  0  0  0
  -22.6173   17.8471  -16.8977 C   0  0  0  0  0  0
  -23.0533   19.3341  -17.7220 C   0  0  0  0  0  0
  -24.6967   19.7344  -18.1220 C   0  0  0  0  0  0
  -24.8344   20.7486  -19.0047 F   0  0  0  0  0  0
  -26.0892   18.6488  -17.7358 C   0  0  0  0  0  0
  -25.7417   16.9948  -17.0060 C   0  0  0  0  0  0
  -23.8835   16.5509  -16.6971 C   0  0  0  0  0  0
  1  2  1  0  0  0
  2  3  2  0  0  0
  2  4  1  0  0  0
  4  5  1  0  0  0
  4  9  1  0  0  0
  5  6  1  0  0  0
  6  7  1  0  0  0
  7  8  1  0  0  0
  7 10  1  0  0  0
  8  9  1  0  0  0
 10 11  2  0  0  0
 10 12  1  0  0  0
 12 13  2  0  0  0
 12 24  1  0  0  0
 13 14  1  0  0  0
 14 15  1  0  0  0
 14 23  1  0  0  0
 15 16  1  0  0  0
 16 17  2  0  0  0
 16 22  1  0  0  0
 17 18  1  0  0  0
 18 19  1  0  0  0
 18 20  2  0  0  0
 20 21  1  0  0  0
 21 22  2  0  0  0
 23 24  2  0  0  0
 24 25  1  0  0  0
 25 26  1  0  0  0
 26 27  1  0  0  0
 27 28  2  0  0  0
 27 33  1  0  0  0
 28 29  1  0  0  0
 29 30  1  0  0  0
 29 31  2  0  0  0
 31 32  1  0  0  0
 32 33  2  0  0  0
M  END
>  <CHROM.0>
-63.95693305,-72.79811493,-44.56502182,62.45006035,-28.83467590,61.76326470
-38.02795554,-167.21412148

>  <CHROM.1>
77.08141527,-165.72132259,-3.47396028,-75.56338307,-168.71457863,159.65033764
-75.50340453,-20.52198406,20.28753662,-15.26406048,-1.14494538,-0.10528014
0.77069377

>  <Name>
F2382-0764

>  <RI>
1.347e+07

>  <Rbt.Current_Directory>
/home/adria/Escritorio/rDock_CMTR_LC/2pxcA_model/inputs_sah

>  <Rbt.Executable>
rbdock ($Id: //depot/dev/client3/rdock/2013.1/src/exe/rbdock.cxx#4 $)

>  <Rbt.Library>
libRbt.so (2013.1, Build901 2013/11/27)

>  <Rbt.Parameter_File>
/home/adria/Escritorio/rDock_2013.1_src/data/scripts/dock.prm

>  <Rbt.Receptor>
sah_rdock.prm

>  <SCORE>
-266.316

>  <SCORE.INTER>
-13.1334

>  <SCORE.INTER.CONST>
1

>  <SCORE.INTER.POLAR>
-0.313668

>  <SCORE.INTER.REPUL>
0.0341925

>  <SCORE.INTER.ROT>
7

>  <SCORE.INTER.VDW>
-24.6378

>  <SCORE.INTER.norm>
-0.39798

>  <SCORE.INTRA>
-245.807

>  <SCORE.INTRA.DIHEDRAL>
-5.62613

>  <SCORE.INTRA.DIHEDRAL.0>
15.2124

>  <SCORE.INTRA.POLAR>
0

>  <SCORE.INTRA.POLAR.0>
0

>  <SCORE.INTRA.REPUL>
0

>  <SCORE.INTRA.REPUL.0>
0

>  <SCORE.INTRA.VDW>
-242.994

>  <SCORE.INTRA.VDW.0>
246.234

>  <SCORE.INTRA.norm>
-7.44869

>  <SCORE.RESTR>
0.145456

>  <SCORE.RESTR.CAVITY>
0.145456

>  <SCORE.RESTR.norm>
0.00440775

>  <SCORE.SYSTEM>
-7.52161

>  <SCORE.SYSTEM.CONST>
0

>  <SCORE.SYSTEM.DIHEDRAL>
6.56929

>  <SCORE.SYSTEM.POLAR>
-3.98895

>  <SCORE.SYSTEM.REPUL>
0.038173

>  <SCORE.SYSTEM.VDW>
2.56532

>  <SCORE.SYSTEM.norm>
-0.227927

>  <SCORE.heavy>
33

>  <SCORE.norm>
-8.07019

$$$$
F2382-0764
  rDOCK(R)          3D
libRbt.so/2013.1/901 2013/11/27
 33 36  0  0  0  0  0  0  0  0999 V2000
  -15.6955   13.4166  -17.1492 C   0  0  0  0  0  0
  -16.9532   13.7343  -16.4044 C   0  0  0  0  0  0
  -17.6078   12.8326  -15.8801 O   0  0  0  0  0  0
  -17.3699   15.0447  -16.3576 N   0  0  0  0  0  0
  -16.7231   16.1986  -16.9283 C   0  0  0  0  0  0
  -17.8251   17.1653  -17.4650 C   0  0  0  0  0  0
  -18.9134   17.9741  -16.1723 N   0  0  0  0  0  0
  -18.8648   16.6949  -15.1782 C   0  0  0  0  0  0
  -18.6449   15.2879  -15.7071 C   0  0  0  0  0  0
  -18.9844   19.9419  -15.9173 C   0  0  0  0  0  0
  -18.9131   20.9500  -16.7006 O   0  0  0  0  0  0
  -19.3273   20.7680  -14.2902 C   0  0  0  0  0  0
  -19.8946   22.0938  -14.0700 C   0  0  0  0  0  0
  -20.7901   22.0178  -13.0139 N   0  0  0  0  0  0
  -21.6991   23.1011  -12.5895 C   0  0  0  0  0  0
  -21.1124   24.1229  -11.6407 C   0  0  0  0  0  0
  -19.8017   23.9418  -11.1749 C   0  0  0  0  0  0
  -19.2632   24.8134  -10.2356 C   0  0  0  0  0  0
  -18.0221   24.5993   -9.7798 F   0  0  0  0  0  0
  -19.9975   25.8870   -9.7513 C   0  0  0  0  0  0
  -21.2887   26.1045  -10.2302 C   0  0  0  0  0  0
  -21.8418   25.2337  -11.1792 C   0  0  0  0  0  0
  -20.7799   20.8119  -12.4374 N   0  0  0  0  0  0
  -19.9975   20.0584  -13.2186 C   0  0  0  0  0  0
  -20.3244   18.7538  -13.1351 O   0  0  0  0  0  0
  -20.7449   18.3644  -11.8419 C   0  0  0  0  0  0
  -22.4655   18.3143  -11.5553 C   0  0  0  0  0  0
  -23.0150   18.2431  -13.2206 C   0  0  0  0  0  0
  -23.8955   19.5402  -13.9712 C   0  0  0  0  0  0
  -24.4976   19.2165  -15.1372 F   0  0  0  0  0  0
  -24.3297   21.0614  -13.0971 C   0  0  0  0  0  0
  -23.9376   21.1899  -11.3030 C   0  0  0  0  0  0
  -23.0686   19.6644  -10.4888 C   0  0  0  0  0  0
  1  2  1  0  0  0
  2  3  2  0  0  0
  2  4  1  0  0  0
  4  5  1  0  0  0
  4  9  1  0  0  0
  5  6  1  0  0  0
  6  7  1  0  0  0
  7  8  1  0  0  0
  7 10  1  0  0  0
  8  9  1  0  0  0
 10 11  2  0  0  0
 10 12  1  0  0  0
 12 13  2  0  0  0
 12 24  1  0  0  0
 13 14  1  0  0  0
 14 15  1  0  0  0
 14 23  1  0  0  0
 15 16  1  0  0  0
 16 17  2  0  0  0
 16 22  1  0  0  0
 17 18  1  0  0  0
 18 19  1  0  0  0
 18 20  2  0  0  0
 20 21  1  0  0  0
 21 22  2  0  0  0
 23 24  2  0  0  0
 24 25  1  0  0  0
 25 26  1  0  0  0
 26 27  1  0  0  0
 27 28  2  0  0  0
 27 33  1  0  0  0
 28 29  1  0  0  0
 29 30  1  0  0  0
 29 31  2  0  0  0
 31 32  1  0  0  0
 32 33  2  0  0  0
M  END
>  <CHROM.0>
-178.75003779,-76.22780479,-44.27606739,63.97252532,-29.94645089,-59.54946296
82.86975410,-161.33900299

>  <CHROM.1>
35.28554030,-154.46863138,-85.18350777,-3.50979466,168.79546362,96.92183301
19.20132959,-20.16083939,19.84903925,-13.60197775,-1.24637718,0.20125886
0.47771474

>  <Name>
F2382-0764

>  <RI>
1.347e+07

>  <Rbt.Current_Directory>
/home/adria/Escritorio/rDock_CMTR_LC/2pxcA_model/inputs_sah

>  <Rbt.Executable>
rbdock ($Id: //depot/dev/client3/rdock/2013.1/src/exe/rbdock.cxx#4 $)

>  <Rbt.Library>
libRbt.so (2013.1, Build901 2013/11/27)

>  <Rbt.Parameter_File>
/home/adria/Escritorio/rDock_2013.1_src/data/scripts/dock.prm

>  <Rbt.Receptor>
sah_rdock.prm

>  <SCORE>
-267.643

>  <SCORE.INTER>
-13.4987

>  <SCORE.INTER.CONST>
1

>  <SCORE.INTER.POLAR>
0

>  <SCORE.INTER.REPUL>
0

>  <SCORE.INTER.ROT>
7

>  <SCORE.INTER.VDW>
-25.8987

>  <SCORE.INTER.norm>
-0.40905

>  <SCORE.INTRA>
-247.045

>  <SCORE.INTRA.DIHEDRAL>
-0.514462

>  <SCORE.INTRA.DIHEDRAL.0>
15.2124

>  <SCORE.INTRA.POLAR>
0

>  <SCORE.INTRA.POLAR.0>
0

>  <SCORE.INTRA.REPUL>
0

>  <SCORE.INTRA.REPUL.0>
0

>  <SCORE.INTRA.VDW>
-246.788

>  <SCORE.INTRA.VDW.0>
246.234

>  <SCORE.INTRA.norm>
-7.48621

>  <SCORE.RESTR>
0

>  <SCORE.RESTR.CAVITY>
0

>  <SCORE.RESTR.norm>
0

>  <SCORE.SYSTEM>
-7.0994

>  <SCORE.SYSTEM.CONST>
0

>  <SCORE.SYSTEM.DIHEDRAL>
7.13052

>  <SCORE.SYSTEM.POLAR>
-4.02483

>  <SCORE.SYSTEM.REPUL>
0.0437831

>  <SCORE.SYSTEM.VDW>
2.80083

>  <SCORE.SYSTEM.norm>
-0.215133

>  <SCORE.heavy>
33

>  <SCORE.norm>
-8.1104

$$$$
F2382-0764
  rDOCK(R)          3D
libRbt.so/2013.1/901 2013/11/27
 33 36  0  0  0  0  0  0  0  0999 V2000
  -26.8940   19.6032   -9.3871 C   0  0  0  0  0  0
  -25.5684   20.1204   -8.9260 C   0  0  0  0  0  0
  -25.4860   20.7750   -7.8862 O   0  0  0  0  0  0
  -24.4648   19.8772   -9.7108 N   0  0  0  0  0  0
  -24.4056   19.1441  -10.9496 C   0  0  0  0  0  0
  -23.3777   19.8487  -11.8897 C   0  0  0  0  0  0
  -21.5846   19.7780  -11.3518 N   0  0  0  0  0  0
  -21.9464   19.8247   -9.7725 C   0  0  0  0  0  0
  -23.2206   20.4821   -9.2704 C   0  0  0  0  0  0
  -20.1787   18.8928  -12.4391 C   0  0  0  0  0  0
  -19.7334   17.6975  -12.5263 O   0  0  0  0  0  0
  -19.2148   19.7398  -13.7811 C   0  0  0  0  0  0
  -18.4696   19.1148  -14.8684 C   0  0  0  0  0  0
  -18.6880   19.8456  -16.0266 N   0  0  0  0  0  0
  -18.2524   19.4460  -17.3795 C   0  0  0  0  0  0
  -16.8556   18.8745  -17.4827 C   0  0  0  0  0  0
  -15.7668   19.6712  -17.0987 C   0  0  0  0  0  0
  -14.4660   19.2096  -17.2623 C   0  0  0  0  0  0
  -13.4421   20.0026  -16.9209 F   0  0  0  0  0  0
  -14.2141   17.9508  -17.7902 C   0  0  0  0  0  0
  -15.2845   17.1302  -18.1431 C   0  0  0  0  0  0
  -16.6007   17.5837  -17.9806 C   0  0  0  0  0  0
  -19.3970   20.9539  -15.7905 N   0  0  0  0  0  0
  -19.7753   20.8600  -14.5106 C   0  0  0  0  0  0
  -20.9142   21.5422  -14.2799 O   0  0  0  0  0  0
  -20.9945   22.0696  -12.9699 C   0  0  0  0  0  0
  -22.1869   23.3133  -12.6935 C   0  0  0  0  0  0
  -21.1057   24.6539  -12.3550 C   0  0  0  0  0  0
  -21.0015   25.3985  -10.7879 C   0  0  0  0  0  0
  -20.3587   26.5873  -10.7667 F   0  0  0  0  0  0
  -22.0055   24.8647   -9.3830 C   0  0  0  0  0  0
  -23.2825   23.5667   -9.6545 C   0  0  0  0  0  0
  -23.4405   22.8609  -11.4496 C   0  0  0  0  0  0
  1  2  1  0  0  0
  2  3  2  0  0  0
  2  4  1  0  0  0
  4  5  1  0  0  0
  4  9  1  0  0  0
  5  6  1  0  0  0
  6  7  1  0  0  0
  7  8  1  0  0  0
  7 10  1  0  0  0
  8  9  1  0  0  0
 10 11  2  0  0  0
 10 12  1  0  0  0
 12 13  2  0  0  0
 12 24  1  0  0  0
 13 14  1  0  0  0
 14 15  1  0  0  0
 14 23  1  0  0  0
 15 16  1  0  0  0
 16 17  2  0  0  0
 16 22  1  0  0  0
 17 18  1  0  0  0
 18 19  1  0  0  0
 18 20  2  0  0  0
 20 21  1  0  0  0
 21 22  2  0  0  0
 23 24  2  0  0  0
 24 25  1  0  0  0
 25 26  1  0  0  0
 26 27  1  0  0  0
 27 28  2  0  0  0
 27 33  1  0  0  0
 28 29  1  0  0  0
 29 30  1  0  0  0
 29 31  2  0  0  0
 31 32  1  0  0  0
 32 33  2  0  0  0
M  END
>  <CHROM.0>
-178.31505117,-73.31015734,110.06026716,148.29233904,-30.74418556,61.38693010
-160.17302854,-162.59800140

>  <CHROM.1>
-87.39158507,-160.58917662,-42.78583643,-60.56348595,55.25354727,163.78573951
-114.02029556,-20.38725974,20.68329788,-13.08689733,2.71823971,0.66998981
0.26739216

>  <Name>
F2382-0764

>  <RI>
1.347e+07

>  <Rbt.Current_Directory>
/home/adria/Escritorio/rDock_CMTR_LC/2pxcA_model/inputs_sah

>  <Rbt.Executable>
rbdock ($Id: //depot/dev/client3/rdock/2013.1/src/exe/rbdock.cxx#4 $)

>  <Rbt.Library>
libRbt.so (2013.1, Build901 2013/11/27)

>  <Rbt.Parameter_File>
/home/adria/Escritorio/rDock_2013.1_src/data/scripts/dock.prm

>  <Rbt.Receptor>
sah_rdock.prm

>  <SCORE>
-267.965

>  <SCORE.INTER>
-17.1959

>  <SCORE.INTER.CONST>
1

>  <SCORE.INTER.POLAR>
-1.34258

>  <SCORE.INTER.REPUL>
0.0189371

>  <SCORE.INTER.ROT>
7

>  <SCORE.INTER.VDW>
-25.1258

>  <SCORE.INTER.norm>
-0.521087

>  <SCORE.INTRA>
-247.332

>  <SCORE.INTRA.DIHEDRAL>
2.63011

>  <SCORE.INTRA.DIHEDRAL.0>
15.2124

>  <SCORE.INTRA.POLAR>
0

>  <SCORE.INTRA.POLAR.0>
0

>  <SCORE.INTRA.REPUL>
0

>  <SCORE.INTRA.REPUL.0>
0

>  <SCORE.INTRA.VDW>
-248.647

>  <SCORE.INTRA.VDW.0>
246.234

>  <SCORE.INTRA.norm>
-7.49491

>  <SCORE.RESTR>
0.352895

>  <SCORE.RESTR.CAVITY>
0.352895

>  <SCORE.RESTR.norm>
0.0106938

>  <SCORE.SYSTEM>
-3.78961

>  <SCORE.SYSTEM.CONST>
0

>  <SCORE.SYSTEM.DIHEDRAL>
12.9165

>  <SCORE.SYSTEM.POLAR>
-4.53336

>  <SCORE.SYSTEM.REPUL>
0.0390847

>  <SCORE.SYSTEM.VDW>
4.97015

>  <SCORE.SYSTEM.norm>
-0.114837

>  <SCORE.heavy>
33

>  <SCORE.norm>
-8.12014

$$$$
F2382-0764
  rDOCK(R)          3D
libRbt.so/2013.1/901 2013/11/27
 33 36  0  0  0  0  0  0  0  0999 V2000
  -18.8171   13.7029  -17.9919 C   0  0  0  0  0  0
  -17.6142   14.4663  -17.5364 C   0  0  0  0  0  0
  -16.4912   13.9707  -17.6356 O   0  0  0  0  0  0
  -17.8040   15.7080  -16.9751 N   0  0  0  0  0  0
  -19.0473   16.4096  -16.7814 C   0  0  0  0  0  0
  -18.9731   17.1771  -15.4241 C   0  0  0  0  0  0
  -17.7516   18.5952  -15.3442 N   0  0  0  0  0  0
  -16.6928   17.8787  -16.3405 C   0  0  0  0  0  0
  -16.6164   16.3662  -16.4610 C   0  0  0  0  0  0
  -18.3144   20.4707  -15.0156 C   0  0  0  0  0  0
  -18.2213   21.5626  -15.6743 O   0  0  0  0  0  0
  -19.3096   21.0154  -13.5458 C   0  0  0  0  0  0
  -20.2134   22.1572  -13.4596 C   0  0  0  0  0  0
  -21.3372   21.7740  -12.7431 N   0  0  0  0  0  0
  -22.5603   22.5848  -12.5810 C   0  0  0  0  0  0
  -22.3861   23.9101  -11.8727 C   0  0  0  0  0  0
  -22.1422   23.9138  -10.4914 C   0  0  0  0  0  0
  -22.0639   25.1142   -9.7949 C   0  0  0  0  0  0
  -21.8653   25.0909   -8.4706 F   0  0  0  0  0  0
  -22.2071   26.3310  -10.4471 C   0  0  0  0  0  0
  -22.4132   26.3482  -11.8259 C   0  0  0  0  0  0
  -22.4917   25.1444  -12.5394 C   0  0  0  0  0  0
  -21.2133   20.5402  -12.2439 N   0  0  0  0  0  0
  -20.0795   20.0631  -12.7702 C   0  0  0  0  0  0
  -20.0980   18.7180  -12.8488 O   0  0  0  0  0  0
  -20.8791   18.1097  -11.8385 C   0  0  0  0  0  0
  -22.4895   17.6065  -12.2841 C   0  0  0  0  0  0
  -22.4194   17.9650  -14.0008 C   0  0  0  0  0  0
  -23.3748   19.2181  -14.7343 C   0  0  0  0  0  0
  -23.4324   19.1707  -16.0838 F   0  0  0  0  0  0
  -24.5278   20.2451  -13.7948 C   0  0  0  0  0  0
  -24.7980   19.8643  -12.0141 C   0  0  0  0  0  0
  -23.8007   18.3776  -11.2791 C   0  0  0  0  0  0
  1  2  1  0  0  0
  2  3  2  0  0  0
  2  4  1  0  0  0
  4  5  1  0  0  0
  4  9  1  0  0  0
  5  6  1  0  0  0
  6  7  1  0  0  0
  7  8  1  0  0  0
  7 10  1  0  0  0
  8  9  1  0  0  0
 10 11  2  0  0  0
 10 12  1  0  0  0
 12 13  2  0  0  0
 12 24  1  0  0  0
 13 14  1  0  0  0
 14 15  1  0  0  0
 14 23  1  0  0  0
 15 16  1  0  0  0
 16 17  2  0  0  0
 16 22  1  0  0  0
 17 18  1  0  0  0
 18 19  1  0  0  0
 18 20  2  0  0  0
 20 21  1  0  0  0
 21 22  2  0  0  0
 23 24  2  0  0  0
 24 25  1  0  0  0
 25 26  1  0  0  0
 26 27  1  0  0  0
 27 28  2  0  0  0
 27 33  1  0  0  0
 28 29  1  0  0  0
 29 30  1  0  0  0
 29 31  2  0  0  0
 31 32  1  0  0  0
 32 33  2  0  0  0
M  END
>  <CHROM.0>
-63.07248552,70.25726932,72.58694500,146.41180264,-29.76239367,59.15330047
83.36363852,-164.10727656

>  <CHROM.1>
-119.41265240,-152.65452562,-61.96908495,-71.80440801,174.14422104,99.62490277
5.31581898,-20.64517008,19.94118767,-13.76211205,1.13341280,-0.36298043,-2.70095213

>  <Name>
F2382-0764

>  <RI>
1.347e+07

>  <Rbt.Current_Directory>
/home/adria/Escritorio/rDock_CMTR_LC/2pxcA_model/inputs_sah

>  <Rbt.Executable>
rbdock ($Id: //depot/dev/client3/rdock/2013.1/src/exe/rbdock.cxx#4 $)

>  <Rbt.Library>
libRbt.so (2013.1, Build901 2013/11/27)

>  <Rbt.Parameter_File>
/home/adria/Escritorio/rDock_2013.1_src/data/scripts/dock.prm

>  <Rbt.Receptor>
sah_rdock.prm

>  <SCORE>
-262.102

>  <SCORE.INTER>
-10.927

>  <SCORE.INTER.CONST>
1

>  <SCORE.INTER.POLAR>
0

>  <SCORE.INTER.REPUL>
0

>  <SCORE.INTER.ROT>
7

>  <SCORE.INTER.VDW>
-23.327

>  <SCORE.INTER.norm>
-0.331122

>  <SCORE.INTRA>
-247.164

>  <SCORE.INTRA.DIHEDRAL>
-1.45557

>  <SCORE.INTRA.DIHEDRAL.0>
15.2124

>  <SCORE.INTRA.POLAR>
0

>  <SCORE.INTRA.POLAR.0>
0

>  <SCORE.INTRA.REPUL>
0

>  <SCORE.INTRA.REPUL.0>
0

>  <SCORE.INTRA.VDW>
-246.437

>  <SCORE.INTRA.VDW.0>
246.234

>  <SCORE.INTRA.norm>
-7.48983

>  <SCORE.RESTR>
0

>  <SCORE.RESTR.CAVITY>
0

>  <SCORE.RESTR.norm>
0

>  <SCORE.SYSTEM>
-4.01029

>  <SCORE.SYSTEM.CONST>
0

>  <SCORE.SYSTEM.DIHEDRAL>
10.3962

>  <SCORE.SYSTEM.POLAR>
-3.74504

>  <SCORE.SYSTEM.VDW>
3.52477

>  <SCORE.SYSTEM.norm>
-0.121524

>  <SCORE.heavy>
33

>  <SCORE.norm>
-7.94247

$$$$
F2382-0764
  rDOCK(R)          3D
libRbt.so/2013.1/901 2013/11/27
 33 36  0  0  0  0  0  0  0  0999 V2000
  -15.2728   13.2249  -19.4841 C   0  0  0  0  0  0
  -15.3120   14.7092  -19.3030 C   0  0  0  0  0  0
  -14.6835   15.4435  -20.0661 O   0  0  0  0  0  0
  -16.0321   15.2185  -18.2471 N   0  0  0  0  0  0
  -16.8022   14.4916  -17.2702 C   0  0  0  0  0  0
  -16.6375   15.1989  -15.8884 C   0  0  0  0  0  0
  -17.3978   16.9045  -15.7390 N   0  0  0  0  0  0
  -17.1087   17.2848  -17.2878 C   0  0  0  0  0  0
  -15.9595   16.6560  -18.0572 C   0  0  0  0  0  0
  -18.8449   17.3177  -14.4439 C   0  0  0  0  0  0
  -19.8073   16.6492  -13.9324 O   0  0  0  0  0  0
  -19.0039   18.9334  -13.5428 C   0  0  0  0  0  0
  -18.8778   20.2760  -14.0990 C   0  0  0  0  0  0
  -19.8568   21.0789  -13.5331 N   0  0  0  0  0  0
  -20.1757   22.4573  -13.9554 C   0  0  0  0  0  0
  -20.7198   23.3697  -12.8784 C   0  0  0  0  0  0
  -21.8089   24.2007  -13.1801 C   0  0  0  0  0  0
  -22.2777   25.1129  -12.2420 C   0  0  0  0  0  0
  -23.2962   25.9200  -12.5659 F   0  0  0  0  0  0
  -21.6950   25.2118  -10.9861 C   0  0  0  0  0  0
  -20.6353   24.3683  -10.6552 C   0  0  0  0  0  0
  -20.1553   23.4428  -11.5919 C   0  0  0  0  0  0
  -20.5332   20.4393  -12.5740 N   0  0  0  0  0  0
  -20.1023   19.1737  -12.6279 C   0  0  0  0  0  0
  -21.0341   18.3139  -12.1715 O   0  0  0  0  0  0
  -21.8933   18.8830  -11.2027 C   0  0  0  0  0  0
  -23.4791   18.1728  -11.0423 C   0  0  0  0  0  0
  -23.4691   17.1622  -12.4773 C   0  0  0  0  0  0
  -24.5158   17.4541  -13.8339 C   0  0  0  0  0  0
  -24.6001   16.4326  -14.7150 F   0  0  0  0  0  0
  -25.7087   18.8113  -13.8742 C   0  0  0  0  0  0
  -25.9156   19.8483  -12.3673 C   0  0  0  0  0  0
  -24.8127   19.3995  -10.8417 C   0  0  0  0  0  0
  1  2  1  0  0  0
  2  3  2  0  0  0
  2  4  1  0  0  0
  4  5  1  0  0  0
  4  9  1  0  0  0
  5  6  1  0  0  0
  6  7  1  0  0  0
  7  8  1  0  0  0
  7 10  1  0  0  0
  8  9  1  0  0  0
 10 11  2  0  0  0
 10 12  1  0  0  0
 12 13  2  0  0  0
 12 24  1  0  0  0
 13 14  1  0  0  0
 14 15  1  0  0  0
 14 23  1  0  0  0
 15 16  1  0  0  0
 16 17  2  0  0  0
 16 22  1  0  0  0
 17 18  1  0  0  0
 18 19  1  0  0  0
 18 20  2  0  0  0
 20 21  1  0  0  0
 21 22  2  0  0  0
 23 24  2  0  0  0
 24 25  1  0  0  0
 25 26  1  0  0  0
 26 27  1  0  0  0
 27 28  2  0  0  0
 27 33  1  0  0  0
 28 29  1  0  0  0
 29 30  1  0  0  0
 29 31  2  0  0  0
 31 32  1  0  0  0
 32 33  2  0  0  0
M  END
>  <CHROM.0>
-61.02984358,-165.59565247,-166.82179090,64.27711212,167.57230766,62.27014122
-156.24511816,-51.99994514

>  <CHROM.1>
-31.10441998,45.48478845,-150.80534638,-136.48082278,175.27787196,154.66318234
-11.31790351,-20.24667691,19.08893602,-14.21114298,0.88204365,-0.47113449
-2.81359283

>  <Name>
F2382-0764

>  <RI>
1.347e+07

>  <Rbt.Current_Directory>
/home/adria/Escritorio/rDock_CMTR_LC/2pxcA_model/inputs_sah

>  <Rbt.Executable>
rbdock ($Id: //depot/dev/client3/rdock/2013.1/src/exe/rbdock.cxx#4 $)

>  <Rbt.Library>
libRbt.so (2013.1, Build901 2013/11/27)

>  <Rbt.Parameter_File>
/home/adria/Escritorio/rDock_2013.1_src/data/scripts/dock.prm

>  <Rbt.Receptor>
sah_rdock.prm

>  <SCORE>
-257.003

>  <SCORE.INTER>
-12.0939

>  <SCORE.INTER.CONST>
1

>  <SCORE.INTER.POLAR>
-0.185298

>  <SCORE.INTER.REPUL>
0.00135937

>  <SCORE.INTER.ROT>
7

>  <SCORE.INTER.VDW>
-23.8707

>  <SCORE.INTER.norm>
-0.366481

>  <SCORE.INTRA>
-245.599

>  <SCORE.INTRA.DIHEDRAL>
-3.03041

>  <SCORE.INTRA.DIHEDRAL.0>
15.2124

>  <SCORE.INTRA.POLAR>
0

>  <SCORE.INTRA.POLAR.0>
0

>  <SCORE.INTRA.REPUL>
0

>  <SCORE.INTRA.REPUL.0>
0

>  <SCORE.INTRA.VDW>
-244.084

>  <SCORE.INTRA.VDW.0>
246.234

>  <SCORE.INTRA.norm>
-7.44239

>  <SCORE.RESTR>
0

>  <SCORE.RESTR.CAVITY>
0

>  <SCORE.RESTR.norm>
0

>  <SCORE.SYSTEM>
0.689469

>  <SCORE.SYSTEM.CONST>
0

>  <SCORE.SYSTEM.DIHEDRAL>
6.43204

>  <SCORE.SYSTEM.POLAR>
-3.29607

>  <SCORE.SYSTEM.REPUL>
0.0066456

>  <SCORE.SYSTEM.VDW>
8.64686

>  <SCORE.SYSTEM.norm>
0.020893

>  <SCORE.heavy>
33

>  <SCORE.norm>
-7.78798

$$$$
F2382-0764
  rDOCK(R)          3D
libRbt.so/2013.1/901 2013/11/27
 33 36  0  0  0  0  0  0  0  0999 V2000
  -25.1175   20.5534   -9.9759 C   0  0  0  0  0  0
  -23.7561   19.9342   -9.9475 C   0  0  0  0  0  0
  -23.3646   19.3436   -8.9403 O   0  0  0  0  0  0
  -22.9516   20.0772  -11.0544 N   0  0  0  0  0  0
  -23.2622   20.7457  -12.2922 C   0  0  0  0  0  0
  -21.9735   21.4665  -12.7991 C   0  0  0  0  0  0
  -20.5662   20.3553  -13.3416 N   0  0  0  0  0  0
  -20.9103   19.2084  -12.2492 C   0  0  0  0  0  0
  -21.6063   19.5431  -10.9409 C   0  0  0  0  0  0
  -19.8644   20.3525  -15.1989 C   0  0  0  0  0  0
  -19.2187   21.1930  -15.9140 O   0  0  0  0  0  0
  -19.9348   18.8855  -16.3349 C   0  0  0  0  0  0
  -18.8629   18.3599  -17.1732 C   0  0  0  0  0  0
  -18.8961   16.9749  -17.1104 N   0  0  0  0  0  0
  -17.8748   16.0728  -17.6787 C   0  0  0  0  0  0
  -16.4365   16.5069  -17.5013 C   0  0  0  0  0  0
  -15.7286   16.0641  -16.3742 C   0  0  0  0  0  0
  -14.4352   16.5136  -16.1355 C   0  0  0  0  0  0
  -13.7926   16.1042  -15.0341 F   0  0  0  0  0  0
  -13.8099   17.3923  -17.0094 C   0  0  0  0  0  0
  -14.4842   17.8143  -18.1543 C   0  0  0  0  0  0
  -15.7880   17.3661  -18.4070 C   0  0  0  0  0  0
  -19.9511   16.5323  -16.4193 N   0  0  0  0  0  0
  -20.5123   17.6297  -15.8986 C   0  0  0  0  0  0
  -21.1869   17.3505  -14.7660 O   0  0  0  0  0  0
  -22.3709   18.1102  -14.6187 C   0  0  0  0  0  0
  -23.7350   17.6407  -15.6005 C   0  0  0  0  0  0
  -23.4989   18.7504  -16.9396 C   0  0  0  0  0  0
  -24.6027   20.0481  -17.2845 C   0  0  0  0  0  0
  -24.4484   20.6153  -18.5015 F   0  0  0  0  0  0
  -26.0896   20.3537  -16.3034 C   0  0  0  0  0  0
  -26.5221   19.1663  -14.9647 C   0  0  0  0  0  0
  -25.3235   17.6690  -14.7064 C   0  0  0  0  0  0
  1  2  1  0  0  0
  2  3  2  0  0  0
  2  4  1  0  0  0
  4  5  1  0  0  0
  4  9  1  0  0  0
  5  6  1  0  0  0
  6  7  1  0  0  0
  7  8  1  0  0  0
  7 10  1  0  0  0
  8  9  1  0  0  0
 10 11  2  0  0  0
 10 12  1  0  0  0
 12 13  2  0  0  0
 12 24  1  0  0  0
 13 14  1  0  0  0
 14 15  1  0  0  0
 14 23  1  0  0  0
 15 16  1  0  0  0
 16 17  2  0  0  0
 16 22  1  0  0  0
 17 18  1  0  0  0
 18 19  1  0  0  0
 18 20  2  0  0  0
 20 21  1  0  0  0
 21 22  2  0  0  0
 23 24  2  0  0  0
 24 25  1  0  0  0
 25 26  1  0  0  0
 26 27  1  0  0  0
 27 28  2  0  0  0
 27 33  1  0  0  0
 28 29  1  0  0  0
 29 30  1  0  0  0
 29 31  2  0  0  0
 31 32  1  0  0  0
 32 33  2  0  0  0
M  END
>  <CHROM.0>
-61.61818753,65.69045751,-6.93686940,66.67317444,-30.39808796,-177.34109625
-158.02496749,-158.32293344

>  <CHROM.1>
68.03700718,-134.04057349,40.85524031,91.55470057,60.52666416,75.57469344
-95.08116436,-20.63792522,18.65136084,-14.97121224,-2.67545580,0.26252579
-1.71987811

>  <Name>
F2382-0764

>  <RI>
1.347e+07

>  <Rbt.Current_Directory>
/home/adria/Escritorio/rDock_CMTR_LC/2pxcA_model/inputs_sah

>  <Rbt.Executable>
rbdock ($Id: //depot/dev/client3/rdock/2013.1/src/exe/rbdock.cxx#4 $)

>  <Rbt.Library>
libRbt.so (2013.1, Build901 2013/11/27)

>  <Rbt.Parameter_File>
/home/adria/Escritorio/rDock_2013.1_src/data/scripts/dock.prm

>  <Rbt.Receptor>
sah_rdock.prm

>  <SCORE>
-262.927

>  <SCORE.INTER>
-9.67128

>  <SCORE.INTER.CONST>
1

>  <SCORE.INTER.POLAR>
-0.759332

>  <SCORE.INTER.REPUL>
0.0925698

>  <SCORE.INTER.ROT>
7

>  <SCORE.INTER.VDW>
-19.9524

>  <SCORE.INTER.norm>
-0.293069

>  <SCORE.INTRA>
-246.199

>  <SCORE.INTRA.DIHEDRAL>
5.46373

>  <SCORE.INTRA.DIHEDRAL.0>
15.2124

>  <SCORE.INTRA.POLAR>
0

>  <SCORE.INTRA.POLAR.0>
0

>  <SCORE.INTRA.REPUL>
0

>  <SCORE.INTRA.REPUL.0>
0

>  <SCORE.INTRA.VDW>
-248.931

>  <SCORE.INTRA.VDW.0>
246.234

>  <SCORE.INTRA.norm>
-7.46057

>  <SCORE.RESTR>
0

>  <SCORE.RESTR.CAVITY>
0

>  <SCORE.RESTR.norm>
0

>  <SCORE.SYSTEM>
-7.05743

>  <SCORE.SYSTEM.CONST>
0

>  <SCORE.SYSTEM.DIHEDRAL>
9.135

>  <SCORE.SYSTEM.POLAR>
-4.32247

>  <SCORE.SYSTEM.VDW>
3.07148

>  <SCORE.SYSTEM.norm>
-0.213861

>  <SCORE.heavy>
33

>  <SCORE.norm>
-7.9675

$$$$
F2382-0764
  rDOCK(R)          3D
libRbt.so/2013.1/901 2013/11/27
 33 36  0  0  0  0  0  0  0  0999 V2000
  -14.8830   16.4561  -18.4605 C   0  0  0  0  0  0
  -14.6961   17.8139  -17.8615 C   0  0  0  0  0  0
  -13.6256   18.4081  -17.9944 O   0  0  0  0  0  0
  -15.7316   18.3539  -17.1342 N   0  0  0  0  0  0
  -17.0284   17.7792  -16.8822 C   0  0  0  0  0  0
  -17.4561   18.1488  -15.4271 C   0  0  0  0  0  0
  -17.8047   19.9610  -15.1050 N   0  0  0  0  0  0
  -16.6849   20.4728  -16.1591 C   0  0  0  0  0  0
  -15.4663   19.6291  -16.4929 C   0  0  0  0  0  0
  -19.5875   20.6185  -14.5290 C   0  0  0  0  0  0
  -20.7409   20.6771  -15.0776 O   0  0  0  0  0  0
  -19.9639   21.2419  -12.8211 C   0  0  0  0  0  0
  -20.4497   22.5654  -12.4463 C   0  0  0  0  0  0
  -21.4067   22.4166  -11.4538 N   0  0  0  0  0  0
  -22.2611   23.4991  -10.9265 C   0  0  0  0  0  0
  -23.2939   23.0864   -9.9011 C   0  0  0  0  0  0
  -24.3172   22.2072  -10.2852 C   0  0  0  0  0  0
  -25.3308   21.8764   -9.3935 C   0  0  0  0  0  0
  -26.3160   21.0627   -9.7948 F   0  0  0  0  0  0
  -25.3464   22.3906   -8.1043 C   0  0  0  0  0  0
  -24.3176   23.2368   -7.6928 C   0  0  0  0  0  0
  -23.2887   23.5758   -8.5822 C   0  0  0  0  0  0
  -21.5124   21.1469  -11.0496 N   0  0  0  0  0  0
  -20.7411   20.4478  -11.8902 C   0  0  0  0  0  0
  -21.1616   19.1726  -12.0032 O   0  0  0  0  0  0
  -20.3996   18.4118  -12.9205 C   0  0  0  0  0  0
  -21.1677   17.0012  -13.6027 C   0  0  0  0  0  0
  -20.9044   17.3460  -15.3034 C   0  0  0  0  0  0
  -22.2063   17.7082  -16.3966 C   0  0  0  0  0  0
  -21.8781   17.6541  -17.7067 F   0  0  0  0  0  0
  -23.9371   17.7462  -15.8774 C   0  0  0  0  0  0
  -24.3510   17.2553  -14.1521 C   0  0  0  0  0  0
  -22.8731   16.7405  -13.0136 C   0  0  0  0  0  0
  1  2  1  0  0  0
  2  3  2  0  0  0
  2  4  1  0  0  0
  4  5  1  0  0  0
  4  9  1  0  0  0
  5  6  1  0  0  0
  6  7  1  0  0  0
  7  8  1  0  0  0
  7 10  1  0  0  0
  8  9  1  0  0  0
 10 11  2  0  0  0
 10 12  1  0  0  0
 12 13  2  0  0  0
 12 24  1  0  0  0
 13 14  1  0  0  0
 14 15  1  0  0  0
 14 23  1  0  0  0
 15 16  1  0  0  0
 16 17  2  0  0  0
 16 22  1  0  0  0
 17 18  1  0  0  0
 18 19  1  0  0  0
 18 20  2  0  0  0
 20 21  1  0  0  0
 21 22  2  0  0  0
 23 24  2  0  0  0
 24 25  1  0  0  0
 25 26  1  0  0  0
 26 27  1  0  0  0
 27 28  2  0  0  0
 27 33  1  0  0  0
 28 29  1  0  0  0
 29 30  1  0  0  0
 29 31  2  0  0  0
 31 32  1  0  0  0
 32 33  2  0  0  0
M  END
>  <CHROM.0>
-59.34805564,67.75332683,-159.20728838,64.85450681,-29.99298851,-175.37456765
81.77327670,-166.18469161

>  <CHROM.1>
-66.70178642,120.44579865,176.47770723,-63.88675448,21.93508426,-157.39347150
127.27316950,-20.61409796,19.84445937,-13.60805384,0.76927710,-0.32767752
-2.37822036

>  <Name>
F2382-0764

>  <RI>
1.347e+07

>  <Rbt.Current_Directory>
/home/adria/Escritorio/rDock_CMTR_LC/2pxcA_model/inputs_sah

>  <Rbt.Executable>
rbdock ($Id: //depot/dev/client3/rdock/2013.1/src/exe/rbdock.cxx#4 $)

>  <Rbt.Library>
libRbt.so (2013.1, Build901 2013/11/27)

>  <Rbt.Parameter_File>
/home/adria/Escritorio/rDock_2013.1_src/data/scripts/dock.prm

>  <Rbt.Receptor>
sah_rdock.prm

>  <SCORE>
-268.258

>  <SCORE.INTER>
-14.5903

>  <SCORE.INTER.CONST>
1

>  <SCORE.INTER.POLAR>
-0.894427

>  <SCORE.INTER.REPUL>
0

>  <SCORE.INTER.ROT>
7

>  <SCORE.INTER.VDW>
-23.9493

>  <SCORE.INTER.norm>
-0.442131

>  <SCORE.INTRA>
-247.067

>  <SCORE.INTRA.DIHEDRAL>
1.79937

>  <SCORE.INTRA.DIHEDRAL.0>
15.2124

>  <SCORE.INTRA.POLAR>
0

>  <SCORE.INTRA.POLAR.0>
0

>  <SCORE.INTRA.REPUL>
0

>  <SCORE.INTRA.REPUL.0>
0

>  <SCORE.INTRA.VDW>
-247.967

>  <SCORE.INTRA.VDW.0>
246.234

>  <SCORE.INTRA.norm>
-7.48689

>  <SCORE.RESTR>
0

>  <SCORE.RESTR.CAVITY>
0

>  <SCORE.RESTR.norm>
0

>  <SCORE.SYSTEM>
-6.60008

>  <SCORE.SYSTEM.CONST>
0

>  <SCORE.SYSTEM.DIHEDRAL>
6.35194

>  <SCORE.SYSTEM.POLAR>
-3.59648

>  <SCORE.SYSTEM.VDW>
2.45197

>  <SCORE.SYSTEM.norm>
-0.200002

>  <SCORE.heavy>
33

>  <SCORE.norm>
-8.12902

$$$$
F2382-0764
  rDOCK(R)          3D
libRbt.so/2013.1/901 2013/11/27
 33 36  0  0  0  0  0  0  0  0999 V2000
  -19.0544   18.7080  -13.6977 C   0  0  0  0  0  0
  -19.0179   19.9788  -12.9095 C   0  0  0  0  0  0
  -17.9615   20.3690  -12.4110 O   0  0  0  0  0  0
  -20.1947   20.6685  -12.7294 N   0  0  0  0  0  0
  -21.5013   20.3341  -13.2359 C   0  0  0  0  0  0
  -22.5602   20.7104  -12.1524 C   0  0  0  0  0  0
  -22.7730   22.5394  -11.8074 N   0  0  0  0  0  0
  -21.2131   22.8812  -12.0847 C   0  0  0  0  0  0
  -20.1248   21.8417  -11.8771 C   0  0  0  0  0  0
  -24.4891   23.4901  -12.1132 C   0  0  0  0  0  0
  -24.9822   24.5999  -11.7131 O   0  0  0  0  0  0
  -25.8075   22.9059  -13.2828 C   0  0  0  0  0  0
  -25.6363   22.4552  -14.6596 C   0  0  0  0  0  0
  -26.4545   21.3546  -14.8657 N   0  0  0  0  0  0
  -26.4463   20.5023  -16.0712 C   0  0  0  0  0  0
  -25.2614   19.5730  -16.2161 C   0  0  0  0  0  0
  -24.2528   19.8983  -17.1350 C   0  0  0  0  0  0
  -23.1949   19.0242  -17.3559 C   0  0  0  0  0  0
  -22.2627   19.3409  -18.2640 F   0  0  0  0  0  0
  -23.1017   17.8240  -16.6651 C   0  0  0  0  0  0
  -24.0751   17.5006  -15.7209 C   0  0  0  0  0  0
  -25.1455   18.3751  -15.4877 C   0  0  0  0  0  0
  -27.2363   21.1099  -13.8096 N   0  0  0  0  0  0
  -26.8123   21.9509  -12.8593 C   0  0  0  0  0  0
  -27.0651   21.4716  -11.6255 O   0  0  0  0  0  0
  -26.7307   22.3794  -10.5936 C   0  0  0  0  0  0
  -26.5410   21.7149   -8.9913 C   0  0  0  0  0  0
  -25.2781   22.7828   -8.4036 C   0  0  0  0  0  0
  -23.6693   22.2252   -8.0546 C   0  0  0  0  0  0
  -22.9134   23.0870   -7.3387 F   0  0  0  0  0  0
  -23.1675   20.5004   -8.2542 C   0  0  0  0  0  0
  -24.4442   19.2592   -8.7218 C   0  0  0  0  0  0
  -26.2468   19.9158   -8.9760 C   0  0  0  0  0  0
  1  2  1  0  0  0
  2  3  2  0  0  0
  2  4  1  0  0  0
  4  5  1  0  0  0
  4  9  1  0  0  0
  5  6  1  0  0  0
  6  7  1  0  0  0
  7  8  1  0  0  0
  7 10  1  0  0  0
  8  9  1  0  0  0
 10 11  2  0  0  0
 10 12  1  0  0  0
 12 13  2  0  0  0
 12 24  1  0  0  0
 13 14  1  0  0  0
 14 15  1  0  0  0
 14 23  1  0  0  0
 15 16  1  0  0  0
 16 17  2  0  0  0
 16 22  1  0  0  0
 17 18  1  0  0  0
 18 19  1  0  0  0
 18 20  2  0  0  0
 20 21  1  0  0  0
 21 22  2  0  0  0
 23 24  2  0  0  0
 24 25  1  0  0  0
 25 26  1  0  0  0
 26 27  1  0  0  0
 27 28  2  0  0  0
 27 33  1  0  0  0
 28 29  1  0  0  0
 29 30  1  0  0  0
 29 31  2  0  0  0
 31 32  1  0  0  0
 32 33  2  0  0  0
M  END
>  <CHROM.0>
-179.68905875,-71.69781473,-128.14503932,153.66729046,167.89509991,-175.37426197
83.49468584,-160.90740837

>  <CHROM.1>
162.02800820,-47.43219523,73.21423665,-104.24176360,28.88572782,-161.51083807
146.50834222,-23.72817320,20.97169363,-12.72428655,-1.37996242,-0.17306295
1.21482177

>  <Name>
F2382-0764

>  <RI>
1.347e+07

>  <Rbt.Current_Directory>
/home/adria/Escritorio/rDock_CMTR_LC/2pxcA_model/inputs_sah

>  <Rbt.Executable>
rbdock ($Id: //depot/dev/client3/rdock/2013.1/src/exe/rbdock.cxx#4 $)

>  <Rbt.Library>
libRbt.so (2013.1, Build901 2013/11/27)

>  <Rbt.Parameter_File>
/home/adria/Escritorio/rDock_2013.1_src/data/scripts/dock.prm

>  <Rbt.Receptor>
sah_rdock.prm

>  <SCORE>
-253.539

>  <SCORE.INTER>
-7.21576

>  <SCORE.INTER.CONST>
1

>  <SCORE.INTER.POLAR>
0

>  <SCORE.INTER.REPUL>
0.0359132

>  <SCORE.INTER.ROT>
7

>  <SCORE.INTER.VDW>
-19.7953

>  <SCORE.INTER.norm>
-0.21866

>  <SCORE.INTRA>
-247.962

>  <SCORE.INTRA.DIHEDRAL>
2.22804

>  <SCORE.INTRA.DIHEDRAL.0>
15.2124

>  <SCORE.INTRA.POLAR>
0

>  <SCORE.INTRA.POLAR.0>
0

>  <SCORE.INTRA.REPUL>
0

>  <SCORE.INTRA.REPUL.0>
0

>  <SCORE.INTRA.VDW>
-249.076

>  <SCORE.INTRA.VDW.0>
246.234

>  <SCORE.INTRA.norm>
-7.51399

>  <SCORE.RESTR>
0.0221586

>  <SCORE.RESTR.CAVITY>
0.0221586

>  <SCORE.RESTR.norm>
0.000671474

>  <SCORE.SYSTEM>
1.61668

>  <SCORE.SYSTEM.CONST>
0

>  <SCORE.SYSTEM.DIHEDRAL>
9.47107

>  <SCORE.SYSTEM.POLAR>
-4.40565

>  <SCORE.SYSTEM.REPUL>
0.0361276

>  <SCORE.SYSTEM.VDW>
11.6797

>  <SCORE.SYSTEM.norm>
0.0489902

>  <SCORE.heavy>
33

>  <SCORE.norm>
-7.68299

$$$$
F2382-0764
  rDOCK(R)          3D
libRbt.so/2013.1/901 2013/11/27
 33 36  0  0  0  0  0  0  0  0999 V2000
  -14.1886   13.6244  -19.6079 C   0  0  0  0  0  0
  -15.6091   13.8303  -19.1871 C   0  0  0  0  0  0
  -16.4819   13.0373  -19.5420 O   0  0  0  0  0  0
  -15.9113   14.9405  -18.4327 N   0  0  0  0  0  0
  -15.0086   15.9563  -17.9545 C   0  0  0  0  0  0
  -15.7391   17.3344  -18.0205 C   0  0  0  0  0  0
  -17.1802   17.5612  -16.8452 N   0  0  0  0  0  0
  -17.6184   16.0022  -16.9136 C   0  0  0  0  0  0
  -17.3167   15.1468  -18.1323 C   0  0  0  0  0  0
  -17.1964   18.9581  -15.4343 C   0  0  0  0  0  0
  -16.3806   19.8723  -15.0692 O   0  0  0  0  0  0
  -18.6453   19.2978  -14.3239 C   0  0  0  0  0  0
  -18.6333   19.9718  -13.0302 C   0  0  0  0  0  0
  -19.7386   20.8064  -12.9602 N   0  0  0  0  0  0
  -19.9964   21.7887  -11.8886 C   0  0  0  0  0  0
  -21.1022   22.7855  -12.1572 C   0  0  0  0  0  0
  -22.4114   22.3144  -12.3345 C   0  0  0  0  0  0
  -23.4352   23.1932  -12.6687 C   0  0  0  0  0  0
  -24.6701   22.7144  -12.8674 F   0  0  0  0  0  0
  -23.1925   24.5517  -12.8176 C   0  0  0  0  0  0
  -21.9048   25.0436  -12.6090 C   0  0  0  0  0  0
  -20.8647   24.1675  -12.2693 C   0  0  0  0  0  0
  -20.5416   20.6600  -14.0187 N   0  0  0  0  0  0
  -19.8774   19.8501  -14.8511 C   0  0  0  0  0  0
  -20.2396   20.0533  -16.1331 O   0  0  0  0  0  0
  -19.8578   18.9992  -16.9957 C   0  0  0  0  0  0
  -20.4722   17.4104  -16.6174 C   0  0  0  0  0  0
  -22.1786   17.7052  -16.9037 C   0  0  0  0  0  0
  -23.3577   17.6880  -15.6267 C   0  0  0  0  0  0
  -24.6427   17.6340  -16.0423 F   0  0  0  0  0  0
  -22.9280   17.3522  -13.9036 C   0  0  0  0  0  0
  -21.1938   16.8820  -13.5029 C   0  0  0  0  0  0
  -19.9498   16.7947  -14.9828 C   0  0  0  0  0  0
  1  2  1  0  0  0
  2  3  2  0  0  0
  2  4  1  0  0  0
  4  5  1  0  0  0
  4  9  1  0  0  0
  5  6  1  0  0  0
  6  7  1  0  0  0
  7  8  1  0  0  0
  7 10  1  0  0  0
  8  9  1  0  0  0
 10 11  2  0  0  0
 10 12  1  0  0  0
 12 13  2  0  0  0
 12 24  1  0  0  0
 13 14  1  0  0  0
 14 15  1  0  0  0
 14 23  1  0  0  0
 15 16  1  0  0  0
 16 17  2  0  0  0
 16 22  1  0  0  0
 17 18  1  0  0  0
 18 19  1  0  0  0
 18 20  2  0  0  0
 20 21  1  0  0  0
 21 22  2  0  0  0
 23 24  2  0  0  0
 24 25  1  0  0  0
 25 26  1  0  0  0
 26 27  1  0  0  0
 27 28  2  0  0  0
 27 33  1  0  0  0
 28 29  1  0  0  0
 29 30  1  0  0  0
 29 31  2  0  0  0
 31 32  1  0  0  0
 32 33  2  0  0  0
M  END
>  <CHROM.0>
-61.47763197,68.21247057,-129.51701292,-60.31282465,-30.76134416,62.01361066
82.96461542,-169.47106451

>  <CHROM.1>
0.58907209,159.15005244,167.73525251,62.49803817,40.51000913,58.58224542
66.08089669,-19.67523888,18.86644065,-15.34497935,-0.97798596,0.10749682
0.56200929

>  <Name>
F2382-0764

>  <RI>
1.347e+07

>  <Rbt.Current_Directory>
/home/adria/Escritorio/rDock_CMTR_LC/2pxcA_model/inputs_sah

>  <Rbt.Executable>
rbdock ($Id: //depot/dev/client3/rdock/2013.1/src/exe/rbdock.cxx#4 $)

>  <Rbt.Library>
libRbt.so (2013.1, Build901 2013/11/27)

>  <Rbt.Parameter_File>
/home/adria/Escritorio/rDock_2013.1_src/data/scripts/dock.prm

>  <Rbt.Receptor>
sah_rdock.prm

>  <SCORE>
-266.59

>  <SCORE.INTER>
-11.7262

>  <SCORE.INTER.CONST>
1

>  <SCORE.INTER.POLAR>
0

>  <SCORE.INTER.REPUL>
0

>  <SCORE.INTER.ROT>
7

>  <SCORE.INTER.VDW>
-24.1262

>  <SCORE.INTER.norm>
-0.355338

>  <SCORE.INTRA>
-248.438

>  <SCORE.INTRA.DIHEDRAL>
1.40646

>  <SCORE.INTRA.DIHEDRAL.0>
15.2124

>  <SCORE.INTRA.POLAR>
0

>  <SCORE.INTRA.POLAR.0>
0

>  <SCORE.INTRA.REPUL>
0

>  <SCORE.INTRA.REPUL.0>
0

>  <SCORE.INTRA.VDW>
-249.141

>  <SCORE.INTRA.VDW.0>
246.234

>  <SCORE.INTRA.norm>
-7.52842

>  <SCORE.RESTR>
0

>  <SCORE.RESTR.CAVITY>
0

>  <SCORE.RESTR.norm>
0

>  <SCORE.SYSTEM>
-6.42591

>  <SCORE.SYSTEM.CONST>
0

>  <SCORE.SYSTEM.DIHEDRAL>
8.49857

>  <SCORE.SYSTEM.POLAR>
-4.15279

>  <SCORE.SYSTEM.VDW>
3.4443

>  <SCORE.SYSTEM.norm>
-0.194725

>  <SCORE.heavy>
33

>  <SCORE.norm>
-8.07848

$$$$
