F2792-0016
  rDOCK(R)          3D
libRbt.so/2013.1/901 2013/11/27
 26 29  0  0  0  0  0  0  0  0999 V2000
  -23.2063   17.9928  -12.6653 C   0  0  0  0  0  0
  -21.7140   18.6656  -13.3149 N   0  3  0  0  0  0
  -19.8265   17.9281  -13.0293 N   0  0  0  0  0  0
  -19.5520   16.9626  -14.5185 N   0  0  0  0  0  0
  -20.8702   17.4144  -15.8176 C   0  0  0  0  0  0
  -22.1875   18.1646  -15.0392 C   0  0  0  0  0  0
  -23.2064   18.8110  -15.6491 N   0  0  0  0  0  0
  -22.8402   19.2316  -16.8660 C   0  0  0  0  0  0
  -21.6146   19.2208  -17.4623 N   0  0  0  0  0  0
  -20.5070   18.5205  -16.9650 C   0  0  0  0  0  0
  -19.2404   19.2135  -17.1701 N   0  0  0  0  0  0
  -17.8480   18.6042  -17.4622 C   0  0  0  0  0  0
  -17.2825   17.4014  -16.4823 C   0  0  0  0  0  0
  -16.0741   16.5485  -16.9516 C   0  0  0  0  0  0
  -16.1829   15.1383  -16.3728 C   0  0  0  0  0  0
  -15.6157   13.2727  -17.0722 C   0  0  0  0  0  0
  -14.8186   13.5649  -18.7063 C   0  0  0  0  0  0
  -14.6224   15.2746  -19.1011 C   0  0  0  0  0  0
  -15.2685   16.6180  -18.2472 C   0  0  0  0  0  0
  -19.1627   20.6154  -16.7168 C   0  0  0  0  0  0
  -19.1549   20.7767  -15.2106 C   0  0  0  0  0  0
  -20.1867   21.4880  -14.5846 C   0  0  0  0  0  0
  -20.2488   21.5864  -13.1934 C   0  0  0  0  0  0
  -19.3037   20.9363  -12.4043 C   0  0  0  0  0  0
  -18.2823   20.2063  -13.0089 C   0  0  0  0  0  0
  -18.1901   20.1480  -14.4048 C   0  0  0  0  0  0
  1  2  1  0  0  0
  2  3  1  0  0  0
  2  6  2  0  0  0
  3  4  1  0  0  0
  4  5  2  0  0  0
  5  6  1  0  0  0
  5 10  1  0  0  0
  6  7  1  0  0  0
  7  8  2  0  0  0
  8  9  1  0  0  0
  9 10  2  0  0  0
 10 11  1  0  0  0
 11 12  1  0  0  0
 11 20  1  0  0  0
 12 13  1  0  0  0
 13 14  1  0  0  0
 14 15  2  0  0  0
 14 19  1  0  0  0
 15 16  1  0  0  0
 16 17  2  0  0  0
 17 18  1  0  0  0
 18 19  2  0  0  0
 20 21  1  0  0  0
 21 22  2  0  0  0
 21 26  1  0  0  0
 22 23  1  0  0  0
 23 24  2  0  0  0
 24 25  1  0  0  0
 25 26  2  0  0  0
M  END
>  <CHROM.0>
-59.22370044,67.29624684,75.20366042,65.58949318,-30.17124957,178.84579210
-157.10203843,-164.64114105

>  <CHROM.1>
59.44803711,-51.01351498,70.66115776,165.03838955,-149.48367914,-118.57075978
-19.15126205,18.24982582,-15.68773114,2.35405053,0.05068313,0.62642044

>  <Name>
F2792-0016

>  <RI>
1.59973e+07

>  <Rbt.Current_Directory>
/home/adria/Escritorio/rDock_CMTR_LC/2pxcA_model/inputs_sah

>  <Rbt.Executable>
rbdock ($Id: //depot/dev/client3/rdock/2013.1/src/exe/rbdock.cxx#4 $)

>  <Rbt.Library>
libRbt.so (2013.1, Build901 2013/11/27)

>  <Rbt.Parameter_File>
/home/adria/Escritorio/rDock_2013.1_src/data/scripts/dock.prm

>  <Rbt.Receptor>
sah_rdock.prm

>  <SCORE>
-251.508

>  <SCORE.INTER>
-12.1552

>  <SCORE.INTER.CONST>
1

>  <SCORE.INTER.POLAR>
-0.824621

>  <SCORE.INTER.REPUL>
0.148926

>  <SCORE.INTER.ROT>
6

>  <SCORE.INTER.VDW>
-21.4961

>  <SCORE.INTER.norm>
-0.467507

>  <SCORE.INTRA>
-231.843

>  <SCORE.INTRA.DIHEDRAL>
5.84715

>  <SCORE.INTRA.DIHEDRAL.0>
9.92383

>  <SCORE.INTRA.POLAR>
0

>  <SCORE.INTRA.POLAR.0>
0

>  <SCORE.INTRA.REPUL>
0

>  <SCORE.INTRA.REPUL.0>
0

>  <SCORE.INTRA.VDW>
-234.767

>  <SCORE.INTRA.VDW.0>
230.487

>  <SCORE.INTRA.norm>
-8.91705

>  <SCORE.RESTR>
0

>  <SCORE.RESTR.CAVITY>
0

>  <SCORE.RESTR.norm>
0

>  <SCORE.SYSTEM>
-7.50984

>  <SCORE.SYSTEM.CONST>
0

>  <SCORE.SYSTEM.DIHEDRAL>
6.01007

>  <SCORE.SYSTEM.POLAR>
-3.80532

>  <SCORE.SYSTEM.VDW>
2.4232

>  <SCORE.SYSTEM.norm>
-0.28884

>  <SCORE.heavy>
26

>  <SCORE.norm>
-9.6734

$$$$
F2792-0016
  rDOCK(R)          3D
libRbt.so/2013.1/901 2013/11/27
 26 29  0  0  0  0  0  0  0  0999 V2000
  -16.1843   18.8130  -16.5572 C   0  0  0  0  0  0
  -17.8979   18.5263  -16.2696 N   0  3  0  0  0  0
  -18.7078   16.9546  -15.2390 N   0  0  0  0  0  0
  -18.9745   17.6510  -13.6053 N   0  0  0  0  0  0
  -18.8288   19.5484  -13.6948 C   0  0  0  0  0  0
  -17.9917   19.9781  -15.1155 C   0  0  0  0  0  0
  -17.8839   21.2250  -15.6267 N   0  0  0  0  0  0
  -18.8873   22.0011  -15.1991 C   0  0  0  0  0  0
  -20.0020   21.6744  -14.4860 N   0  0  0  0  0  0
  -20.1892   20.4424  -13.8447 C   0  0  0  0  0  0
  -21.5691   19.9721  -13.8793 N   0  0  0  0  0  0
  -22.8353   20.6670  -13.3231 C   0  0  0  0  0  0
  -22.6894   21.6577  -12.0102 C   0  0  0  0  0  0
  -21.7792   22.9109  -12.1055 C   0  0  0  0  0  0
  -22.6340   24.1496  -12.3716 C   0  0  0  0  0  0
  -22.4538   26.1390  -11.8231 C   0  0  0  0  0  0
  -20.8905   26.2590  -10.8572 C   0  0  0  0  0  0
  -19.9600   24.7586  -10.8301 C   0  0  0  0  0  0
  -20.4567   23.2184  -11.4065 C   0  0  0  0  0  0
  -21.7813   18.5372  -14.1492 C   0  0  0  0  0  0
  -22.7727   17.8743  -13.2151 C   0  0  0  0  0  0
  -23.6636   16.9165  -13.7165 C   0  0  0  0  0  0
  -24.5344   16.2323  -12.8667 C   0  0  0  0  0  0
  -24.4964   16.4635  -11.4942 C   0  0  0  0  0  0
  -23.6019   17.3971  -10.9747 C   0  0  0  0  0  0
  -22.7627   18.1199  -11.8312 C   0  0  0  0  0  0
  1  2  1  0  0  0
  2  3  1  0  0  0
  2  6  2  0  0  0
  3  4  1  0  0  0
  4  5  2  0  0  0
  5  6  1  0  0  0
  5 10  1  0  0  0
  6  7  1  0  0  0
  7  8  2  0  0  0
  8  9  1  0  0  0
  9 10  2  0  0  0
 10 11  1  0  0  0
 11 12  1  0  0  0
 11 20  1  0  0  0
 12 13  1  0  0  0
 13 14  1  0  0  0
 14 15  2  0  0  0
 14 19  1  0  0  0
 15 16  1  0  0  0
 16 17  2  0  0  0
 17 18  1  0  0  0
 18 19  2  0  0  0
 20 21  1  0  0  0
 21 22  2  0  0  0
 21 26  1  0  0  0
 22 23  1  0  0  0
 23 24  2  0  0  0
 24 25  1  0  0  0
 25 26  2  0  0  0
M  END
>  <CHROM.0>
-64.40921948,64.41303235,72.10070444,-59.36552549,31.76043363,-59.00793705
81.83899434,-165.23887584

>  <CHROM.1>
145.88192396,-29.80169044,133.57350802,60.65336181,99.38879636,141.42063256
-20.90361302,20.28760362,-13.36638052,-1.54406580,0.54963400,0.27535975

>  <Name>
F2792-0016

>  <RI>
1.59973e+07

>  <Rbt.Current_Directory>
/home/adria/Escritorio/rDock_CMTR_LC/2pxcA_model/inputs_sah

>  <Rbt.Executable>
rbdock ($Id: //depot/dev/client3/rdock/2013.1/src/exe/rbdock.cxx#4 $)

>  <Rbt.Library>
libRbt.so (2013.1, Build901 2013/11/27)

>  <Rbt.Parameter_File>
/home/adria/Escritorio/rDock_2013.1_src/data/scripts/dock.prm

>  <Rbt.Receptor>
sah_rdock.prm

>  <SCORE>
-240.282

>  <SCORE.INTER>
-13.2879

>  <SCORE.INTER.CONST>
1

>  <SCORE.INTER.POLAR>
-0.824621

>  <SCORE.INTER.REPUL>
0

>  <SCORE.INTER.ROT>
6

>  <SCORE.INTER.VDW>
-21.8842

>  <SCORE.INTER.norm>
-0.511073

>  <SCORE.INTRA>
-231.966

>  <SCORE.INTRA.DIHEDRAL>
-0.780043

>  <SCORE.INTRA.DIHEDRAL.0>
9.92383

>  <SCORE.INTRA.POLAR>
0

>  <SCORE.INTRA.POLAR.0>
0

>  <SCORE.INTRA.REPUL>
0

>  <SCORE.INTRA.REPUL.0>
0

>  <SCORE.INTRA.VDW>
-231.576

>  <SCORE.INTRA.VDW.0>
230.487

>  <SCORE.INTRA.norm>
-8.92175

>  <SCORE.RESTR>
0.191301

>  <SCORE.RESTR.CAVITY>
0.191301

>  <SCORE.RESTR.norm>
0.00735772

>  <SCORE.SYSTEM>
4.78043

>  <SCORE.SYSTEM.CONST>
0

>  <SCORE.SYSTEM.DIHEDRAL>
5.17928

>  <SCORE.SYSTEM.POLAR>
-3.39759

>  <SCORE.SYSTEM.VDW>
13.7426

>  <SCORE.SYSTEM.norm>
0.183863

>  <SCORE.heavy>
26

>  <SCORE.norm>
-9.2416

$$$$
F2792-0016
  rDOCK(R)          3D
libRbt.so/2013.1/901 2013/11/27
 26 29  0  0  0  0  0  0  0  0999 V2000
  -18.9313   25.1122   -9.6315 C   0  0  0  0  0  0
  -20.6721   25.0548   -9.8918 N   0  3  0  0  0  0
  -21.8925   26.6502  -10.2833 N   0  0  0  0  0  0
  -22.0412   26.6021  -12.0723 N   0  0  0  0  0  0
  -21.4192   24.9196  -12.7140 C   0  0  0  0  0  0
  -20.4440   24.1924  -11.5206 C   0  0  0  0  0  0
  -20.0052   22.9137  -11.5251 N   0  0  0  0  0  0
  -20.7974   22.1433  -12.2807 C   0  0  0  0  0  0
  -21.9863   22.4351  -12.8799 N   0  0  0  0  0  0
  -22.5035   23.7316  -13.0058 C   0  0  0  0  0  0
  -23.9547   23.7942  -12.8779 N   0  0  0  0  0  0
  -25.0293   23.2374  -13.8427 C   0  0  0  0  0  0
  -25.4498   21.6443  -13.7339 C   0  0  0  0  0  0
  -25.7367   20.8471  -15.0340 C   0  0  0  0  0  0
  -26.2657   21.7925  -16.1120 C   0  0  0  0  0  0
  -26.0895   21.8272  -18.1757 C   0  0  0  0  0  0
  -25.0953   20.3435  -18.6246 C   0  0  0  0  0  0
  -24.7487   19.2845  -17.2549 C   0  0  0  0  0  0
  -25.0497   19.6034  -15.5940 C   0  0  0  0  0  0
  -24.5017   24.7824  -11.9285 C   0  0  0  0  0  0
  -24.6111   24.2748  -10.5054 C   0  0  0  0  0  0
  -25.8684   24.1964   -9.8926 C   0  0  0  0  0  0
  -26.0099   23.6597   -8.6116 C   0  0  0  0  0  0
  -24.9008   23.1513   -7.9409 C   0  0  0  0  0  0
  -23.6454   23.2012   -8.5435 C   0  0  0  0  0  0
  -23.4941   23.7843   -9.8075 C   0  0  0  0  0  0
  1  2  1  0  0  0
  2  3  1  0  0  0
  2  6  2  0  0  0
  3  4  1  0  0  0
  4  5  2  0  0  0
  5  6  1  0  0  0
  5 10  1  0  0  0
  6  7  1  0  0  0
  7  8  2  0  0  0
  8  9  1  0  0  0
  9 10  2  0  0  0
 10 11  1  0  0  0
 11 12  1  0  0  0
 11 20  1  0  0  0
 12 13  1  0  0  0
 13 14  1  0  0  0
 14 15  2  0  0  0
 14 19  1  0  0  0
 15 16  1  0  0  0
 16 17  2  0  0  0
 17 18  1  0  0  0
 18 19  2  0  0  0
 20 21  1  0  0  0
 21 22  2  0  0  0
 21 26  1  0  0  0
 22 23  1  0  0  0
 23 24  2  0  0  0
 24 25  1  0  0  0
 25 26  2  0  0  0
M  END
>  <CHROM.0>
-167.76668774,-72.90698181,-163.84163063,-59.98351933,167.02830232,63.38696844
-158.60021035,-160.49307893

>  <CHROM.1>
136.94941544,83.14401177,-86.84233059,-141.69834820,-28.91874276,-118.22263532
-23.46997389,23.22850012,-12.44552562,-1.14302718,-0.25942093,-1.97855183

>  <Name>
F2792-0016

>  <RI>
1.59973e+07

>  <Rbt.Current_Directory>
/home/adria/Escritorio/rDock_CMTR_LC/2pxcA_model/inputs_sah

>  <Rbt.Executable>
rbdock ($Id: //depot/dev/client3/rdock/2013.1/src/exe/rbdock.cxx#4 $)

>  <Rbt.Library>
libRbt.so (2013.1, Build901 2013/11/27)

>  <Rbt.Parameter_File>
/home/adria/Escritorio/rDock_2013.1_src/data/scripts/dock.prm

>  <Rbt.Receptor>
sah_rdock.prm

>  <SCORE>
-253.746

>  <SCORE.INTER>
-21.2401

>  <SCORE.INTER.CONST>
1

>  <SCORE.INTER.POLAR>
-2.57958

>  <SCORE.INTER.REPUL>
0.0125635

>  <SCORE.INTER.ROT>
6

>  <SCORE.INTER.VDW>
-23.9323

>  <SCORE.INTER.norm>
-0.816927

>  <SCORE.INTRA>
-230.889

>  <SCORE.INTRA.DIHEDRAL>
5.13906

>  <SCORE.INTRA.DIHEDRAL.0>
9.92383

>  <SCORE.INTRA.POLAR>
0

>  <SCORE.INTRA.POLAR.0>
0

>  <SCORE.INTRA.REPUL>
0

>  <SCORE.INTRA.REPUL.0>
0

>  <SCORE.INTRA.VDW>
-233.458

>  <SCORE.INTRA.VDW.0>
230.487

>  <SCORE.INTRA.norm>
-8.88034

>  <SCORE.RESTR>
0

>  <SCORE.RESTR.CAVITY>
0

>  <SCORE.RESTR.norm>
0

>  <SCORE.SYSTEM>
-1.61671

>  <SCORE.SYSTEM.CONST>
0

>  <SCORE.SYSTEM.DIHEDRAL>
4.49095

>  <SCORE.SYSTEM.POLAR>
-3.89695

>  <SCORE.SYSTEM.REPUL>
0.038369

>  <SCORE.SYSTEM.VDW>
9.19559

>  <SCORE.SYSTEM.norm>
-0.0621812

>  <SCORE.heavy>
26

>  <SCORE.norm>
-9.75945

$$$$
F2792-0016
  rDOCK(R)          3D
libRbt.so/2013.1/901 2013/11/27
 26 29  0  0  0  0  0  0  0  0999 V2000
  -26.5123   23.5608   -8.6183 C   0  0  0  0  0  0
  -24.9301   23.8510   -9.3354 N   0  3  0  0  0  0
  -23.1462   23.0871   -8.6857 N   0  0  0  0  0  0
  -22.9124   21.6663   -9.7590 N   0  0  0  0  0  0
  -24.1177   21.7793  -11.2300 C   0  0  0  0  0  0
  -25.3797   22.8549  -10.8368 C   0  0  0  0  0  0
  -26.2965   23.3512  -11.6976 N   0  0  0  0  0  0
  -25.8355   23.3156  -12.9538 C   0  0  0  0  0  0
  -24.5935   23.0033  -13.4204 N   0  0  0  0  0  0
  -23.5894   22.4116  -12.6418 C   0  0  0  0  0  0
  -22.2485   22.8862  -12.9630 N   0  0  0  0  0  0
  -20.9288   22.0788  -13.0091 C   0  0  0  0  0  0
  -20.1561   21.8961  -14.4570 C   0  0  0  0  0  0
  -19.0177   20.8487  -14.5801 C   0  0  0  0  0  0
  -19.4706   19.5216  -13.9722 C   0  0  0  0  0  0
  -19.0512   17.5429  -14.4194 C   0  0  0  0  0  0
  -17.8668   17.5818  -15.8290 C   0  0  0  0  0  0
  -17.3261   19.2083  -16.2527 C   0  0  0  0  0  0
  -17.9366   20.6958  -15.6478 C   0  0  0  0  0  0
  -22.0209   24.3427  -12.9027 C   0  0  0  0  0  0
  -21.2862   24.8009  -11.6597 C   0  0  0  0  0  0
  -21.9834   25.4844  -10.6552 C   0  0  0  0  0  0
  -21.3519   25.8496   -9.4649 C   0  0  0  0  0  0
  -20.0236   25.4967   -9.2421 C   0  0  0  0  0  0
  -19.3202   24.7979  -10.2212 C   0  0  0  0  0  0
  -19.9376   24.4746  -11.4356 C   0  0  0  0  0  0
  1  2  1  0  0  0
  2  3  1  0  0  0
  2  6  2  0  0  0
  3  4  1  0  0  0
  4  5  2  0  0  0
  5  6  1  0  0  0
  5 10  1  0  0  0
  6  7  1  0  0  0
  7  8  2  0  0  0
  8  9  1  0  0  0
  9 10  2  0  0  0
 10 11  1  0  0  0
 11 12  1  0  0  0
 11 20  1  0  0  0
 12 13  1  0  0  0
 13 14  1  0  0  0
 14 15  2  0  0  0
 14 19  1  0  0  0
 15 16  1  0  0  0
 16 17  2  0  0  0
 17 18  1  0  0  0
 18 19  2  0  0  0
 20 21  1  0  0  0
 21 22  2  0  0  0
 21 26  1  0  0  0
 22 23  1  0  0  0
 23 24  2  0  0  0
 24 25  1  0  0  0
 25 26  2  0  0  0
M  END
>  <CHROM.0>
-177.14130510,-167.73920116,-128.49508255,63.95965129,-30.98989453,57.96660089
-36.84765104,-170.47814792

>  <CHROM.1>
62.98694306,114.77232562,102.69951545,-166.85379836,47.46740634,-107.06372001
-21.86285880,22.56865321,-12.11966409,2.29713219,0.15460333,0.70664931

>  <Name>
F2792-0016

>  <RI>
1.59973e+07

>  <Rbt.Current_Directory>
/home/adria/Escritorio/rDock_CMTR_LC/2pxcA_model/inputs_sah

>  <Rbt.Executable>
rbdock ($Id: //depot/dev/client3/rdock/2013.1/src/exe/rbdock.cxx#4 $)

>  <Rbt.Library>
libRbt.so (2013.1, Build901 2013/11/27)

>  <Rbt.Parameter_File>
/home/adria/Escritorio/rDock_2013.1_src/data/scripts/dock.prm

>  <Rbt.Receptor>
sah_rdock.prm

>  <SCORE>
-243.137

>  <SCORE.INTER>
-8.10218

>  <SCORE.INTER.CONST>
1

>  <SCORE.INTER.POLAR>
0

>  <SCORE.INTER.REPUL>
0.456803

>  <SCORE.INTER.ROT>
6

>  <SCORE.INTER.VDW>
-21.7862

>  <SCORE.INTER.norm>
-0.311622

>  <SCORE.INTRA>
-229.539

>  <SCORE.INTRA.DIHEDRAL>
6.32128

>  <SCORE.INTRA.DIHEDRAL.0>
9.92383

>  <SCORE.INTRA.POLAR>
0

>  <SCORE.INTRA.POLAR.0>
0

>  <SCORE.INTRA.REPUL>
0

>  <SCORE.INTRA.REPUL.0>
0

>  <SCORE.INTRA.VDW>
-232.7

>  <SCORE.INTRA.VDW.0>
230.487

>  <SCORE.INTRA.norm>
-8.82842

>  <SCORE.RESTR>
0

>  <SCORE.RESTR.CAVITY>
0

>  <SCORE.RESTR.norm>
0

>  <SCORE.SYSTEM>
-5.4955

>  <SCORE.SYSTEM.CONST>
0

>  <SCORE.SYSTEM.DIHEDRAL>
8.98192

>  <SCORE.SYSTEM.POLAR>
-4.1579

>  <SCORE.SYSTEM.VDW>
4.1504

>  <SCORE.SYSTEM.norm>
-0.211365

>  <SCORE.heavy>
26

>  <SCORE.norm>
-9.35141

$$$$
F2792-0016
  rDOCK(R)          3D
libRbt.so/2013.1/901 2013/11/27
 26 29  0  0  0  0  0  0  0  0999 V2000
  -22.6481   26.2981  -12.2663 C   0  0  0  0  0  0
  -23.3042   24.8394  -11.5293 N   0  3  0  0  0  0
  -25.0621   23.9161  -12.0249 N   0  0  0  0  0  0
  -24.5222   22.6130  -13.1364 N   0  0  0  0  0  0
  -22.6347   22.3991  -12.9913 C   0  0  0  0  0  0
  -21.9659   23.8008  -12.2899 C   0  0  0  0  0  0
  -20.6998   23.9338  -11.8348 N   0  0  0  0  0  0
  -20.1758   22.7390  -11.5351 C   0  0  0  0  0  0
  -20.7663   21.5113  -11.4935 N   0  0  0  0  0  0
  -22.0414   21.2368  -12.0067 C   0  0  0  0  0  0
  -22.7897   20.2657  -11.2172 N   0  0  0  0  0  0
  -22.3890   18.8183  -10.8429 C   0  0  0  0  0  0
  -20.9814   18.1997  -11.4452 C   0  0  0  0  0  0
  -20.7169   18.2694  -12.9727 C   0  0  0  0  0  0
  -19.5578   19.2257  -13.2518 C   0  0  0  0  0  0
  -18.0758   19.2703  -14.6985 C   0  0  0  0  0  0
  -18.3873   17.8189  -15.7883 C   0  0  0  0  0  0
  -19.8811   16.9577  -15.4081 C   0  0  0  0  0  0
  -20.9045   17.2039  -14.0505 C   0  0  0  0  0  0
  -24.2306   20.5220  -11.0302 C   0  0  0  0  0  0
  -24.5397   21.5589   -9.9700 C   0  0  0  0  0  0
  -25.8433   22.0566   -9.8467 C   0  0  0  0  0  0
  -26.1758   22.9533   -8.8298 C   0  0  0  0  0  0
  -25.2189   23.3319   -7.8919 C   0  0  0  0  0  0
  -23.9222   22.8304   -7.9859 C   0  0  0  0  0  0
  -23.5747   21.9700   -9.0344 C   0  0  0  0  0  0
  1  2  1  0  0  0
  2  3  1  0  0  0
  2  6  2  0  0  0
  3  4  1  0  0  0
  4  5  2  0  0  0
  5  6  1  0  0  0
  5 10  1  0  0  0
  6  7  1  0  0  0
  7  8  2  0  0  0
  8  9  1  0  0  0
  9 10  2  0  0  0
 10 11  1  0  0  0
 11 12  1  0  0  0
 11 20  1  0  0  0
 12 13  1  0  0  0
 13 14  1  0  0  0
 14 15  2  0  0  0
 14 19  1  0  0  0
 15 16  1  0  0  0
 16 17  2  0  0  0
 17 18  1  0  0  0
 18 19  2  0  0  0
 20 21  1  0  0  0
 21 22  2  0  0  0
 21 26  1  0  0  0
 22 23  1  0  0  0
 23 24  2  0  0  0
 24 25  1  0  0  0
 25 26  2  0  0  0
M  END
>  <CHROM.0>
167.69459296,-74.62170473,-161.12891398,-63.28317131,167.54388101,60.72158776
-35.23440861,-164.55289654

>  <CHROM.1>
147.76393076,-3.56732482,-78.87384997,-51.94560562,112.48272725,169.44025434
-22.35821816,21.36299679,-11.74032438,-2.51458726,-0.75746471,3.05339013

>  <Name>
F2792-0016

>  <RI>
1.59973e+07

>  <Rbt.Current_Directory>
/home/adria/Escritorio/rDock_CMTR_LC/2pxcA_model/inputs_sah

>  <Rbt.Executable>
rbdock ($Id: //depot/dev/client3/rdock/2013.1/src/exe/rbdock.cxx#4 $)

>  <Rbt.Library>
libRbt.so (2013.1, Build901 2013/11/27)

>  <Rbt.Parameter_File>
/home/adria/Escritorio/rDock_2013.1_src/data/scripts/dock.prm

>  <Rbt.Receptor>
sah_rdock.prm

>  <SCORE>
-241.747

>  <SCORE.INTER>
-5.61919

>  <SCORE.INTER.CONST>
1

>  <SCORE.INTER.POLAR>
0

>  <SCORE.INTER.REPUL>
0.176703

>  <SCORE.INTER.ROT>
6

>  <SCORE.INTER.VDW>
-17.9027

>  <SCORE.INTER.norm>
-0.216123

>  <SCORE.INTRA>
-234.801

>  <SCORE.INTRA.DIHEDRAL>
-0.281955

>  <SCORE.INTRA.DIHEDRAL.0>
9.92383

>  <SCORE.INTRA.POLAR>
0

>  <SCORE.INTRA.POLAR.0>
0

>  <SCORE.INTRA.REPUL>
0

>  <SCORE.INTRA.REPUL.0>
0

>  <SCORE.INTRA.VDW>
-234.66

>  <SCORE.INTRA.VDW.0>
230.487

>  <SCORE.INTRA.norm>
-9.0308

>  <SCORE.RESTR>
0

>  <SCORE.RESTR.CAVITY>
0

>  <SCORE.RESTR.norm>
0

>  <SCORE.SYSTEM>
-1.3269

>  <SCORE.SYSTEM.CONST>
0

>  <SCORE.SYSTEM.DIHEDRAL>
4.98242

>  <SCORE.SYSTEM.POLAR>
-3.8949

>  <SCORE.SYSTEM.REPUL>
0.041302

>  <SCORE.SYSTEM.VDW>
9.21803

>  <SCORE.SYSTEM.norm>
-0.0510347

>  <SCORE.heavy>
26

>  <SCORE.norm>
-9.29796

$$$$
F2792-0016
  rDOCK(R)          3D
libRbt.so/2013.1/901 2013/11/27
 26 29  0  0  0  0  0  0  0  0999 V2000
  -24.9540   22.5134   -7.8878 C   0  0  0  0  0  0
  -23.4504   21.7241   -8.3545 N   0  3  0  0  0  0
  -23.0027   19.7397   -8.1306 N   0  0  0  0  0  0
  -23.3759   19.0668   -9.7532 N   0  0  0  0  0  0
  -23.5600   20.4929  -11.0028 C   0  0  0  0  0  0
  -23.8431   21.9445  -10.1561 C   0  0  0  0  0  0
  -23.8115   23.1893  -10.6824 N   0  0  0  0  0  0
  -23.0652   23.2155  -11.7935 C   0  0  0  0  0  0
  -22.2717   22.2492  -12.3362 N   0  0  0  0  0  0
  -22.2772   20.9088  -11.9267 C   0  0  0  0  0  0
  -20.9598   20.2845  -11.9609 N   0  0  0  0  0  0
  -19.6165   20.9001  -12.4213 C   0  0  0  0  0  0
  -18.5007   19.9248  -13.1498 C   0  0  0  0  0  0
  -18.8917   19.1635  -14.4443 C   0  0  0  0  0  0
  -18.7160   20.0804  -15.6543 C   0  0  0  0  0  0
  -18.1814   19.7364  -17.6259 C   0  0  0  0  0  0
  -17.9357   17.9174  -17.7745 C   0  0  0  0  0  0
  -18.3742   17.0238  -16.3162 C   0  0  0  0  0  0
  -18.7800   17.6780  -14.7805 C   0  0  0  0  0  0
  -20.9144   18.8115  -11.8896 C   0  0  0  0  0  0
  -21.9768   18.1212  -12.7199 C   0  0  0  0  0  0
  -21.8775   18.1287  -14.1173 C   0  0  0  0  0  0
  -22.7974   17.4350  -14.9056 C   0  0  0  0  0  0
  -23.8059   16.6853  -14.3061 C   0  0  0  0  0  0
  -23.9074   16.6487  -12.9168 C   0  0  0  0  0  0
  -23.0158   17.3839  -12.1264 C   0  0  0  0  0  0
  1  2  1  0  0  0
  2  3  1  0  0  0
  2  6  2  0  0  0
  3  4  1  0  0  0
  4  5  2  0  0  0
  5  6  1  0  0  0
  5 10  1  0  0  0
  6  7  1  0  0  0
  7  8  2  0  0  0
  8  9  1  0  0  0
  9 10  2  0  0  0
 10 11  1  0  0  0
 11 12  1  0  0  0
 11 20  1  0  0  0
 12 13  1  0  0  0
 13 14  1  0  0  0
 14 15  2  0  0  0
 14 19  1  0  0  0
 15 16  1  0  0  0
 16 17  2  0  0  0
 17 18  1  0  0  0
 18 19  2  0  0  0
 20 21  1  0  0  0
 21 22  2  0  0  0
 21 26  1  0  0  0
 22 23  1  0  0  0
 23 24  2  0  0  0
 24 25  1  0  0  0
 25 26  2  0  0  0
M  END
>  <CHROM.0>
-177.96406673,-165.67677106,72.04987850,66.23544215,168.43886742,66.57346057
-158.03003640,-56.51030289

>  <CHROM.1>
-156.93307519,-146.71224999,41.41002449,58.36642352,83.59469517,71.44847693
-21.62609079,19.68831329,-12.59616759,-2.36624048,-0.69644979,-2.61426814

>  <Name>
F2792-0016

>  <RI>
1.59973e+07

>  <Rbt.Current_Directory>
/home/adria/Escritorio/rDock_CMTR_LC/2pxcA_model/inputs_sah

>  <Rbt.Executable>
rbdock ($Id: //depot/dev/client3/rdock/2013.1/src/exe/rbdock.cxx#4 $)

>  <Rbt.Library>
libRbt.so (2013.1, Build901 2013/11/27)

>  <Rbt.Parameter_File>
/home/adria/Escritorio/rDock_2013.1_src/data/scripts/dock.prm

>  <Rbt.Receptor>
sah_rdock.prm

>  <SCORE>
-244.194

>  <SCORE.INTER>
-10.8627

>  <SCORE.INTER.CONST>
1

>  <SCORE.INTER.POLAR>
-1.25864

>  <SCORE.INTER.REPUL>
0.108194

>  <SCORE.INTER.ROT>
6

>  <SCORE.INTER.VDW>
-18.5243

>  <SCORE.INTER.norm>
-0.417795

>  <SCORE.INTRA>
-234.282

>  <SCORE.INTRA.DIHEDRAL>
-3.34418

>  <SCORE.INTRA.DIHEDRAL.0>
9.92383

>  <SCORE.INTRA.POLAR>
0

>  <SCORE.INTRA.POLAR.0>
0

>  <SCORE.INTRA.REPUL>
0

>  <SCORE.INTRA.REPUL.0>
0

>  <SCORE.INTRA.VDW>
-232.61

>  <SCORE.INTRA.VDW.0>
230.487

>  <SCORE.INTRA.norm>
-9.01083

>  <SCORE.RESTR>
0

>  <SCORE.RESTR.CAVITY>
0

>  <SCORE.RESTR.norm>
0

>  <SCORE.SYSTEM>
0.950012

>  <SCORE.SYSTEM.CONST>
0

>  <SCORE.SYSTEM.DIHEDRAL>
6.67043

>  <SCORE.SYSTEM.POLAR>
-3.28382

>  <SCORE.SYSTEM.VDW>
8.77977

>  <SCORE.SYSTEM.norm>
0.0365389

>  <SCORE.heavy>
26

>  <SCORE.norm>
-9.39209

$$$$
F2792-0016
  rDOCK(R)          3D
libRbt.so/2013.1/901 2013/11/27
 26 29  0  0  0  0  0  0  0  0999 V2000
  -13.8252   20.9898  -17.0256 C   0  0  0  0  0  0
  -15.2573   20.2886  -16.2782 N   0  3  0  0  0  0
  -17.1937   20.8792  -16.5783 N   0  0  0  0  0  0
  -17.7742   19.7115  -17.8130 N   0  0  0  0  0  0
  -16.5512   18.2556  -17.9317 C   0  0  0  0  0  0
  -15.0572   18.7248  -17.2596 C   0  0  0  0  0  0
  -14.0232   17.9028  -16.9719 N   0  0  0  0  0  0
  -14.4503   16.6454  -16.8024 C   0  0  0  0  0  0
  -15.7204   16.1546  -16.7411 N   0  0  0  0  0  0
  -16.8620   16.8880  -17.0920 C   0  0  0  0  0  0
  -18.0211   16.5950  -16.2571 N   0  0  0  0  0  0
  -19.1269   17.5643  -15.7738 C   0  0  0  0  0  0
  -20.6196   17.4842  -16.4753 C   0  0  0  0  0  0
  -21.6995   18.5248  -16.0768 C   0  0  0  0  0  0
  -22.4003   19.0463  -17.3308 C   0  0  0  0  0  0
  -24.3329   19.6889  -17.7095 C   0  0  0  0  0  0
  -25.2312   19.5660  -16.1067 C   0  0  0  0  0  0
  -24.1936   19.1266  -14.7472 C   0  0  0  0  0  0
  -22.5544   18.6172  -14.8146 C   0  0  0  0  0  0
  -17.9893   15.3392  -15.4833 C   0  0  0  0  0  0
  -18.4889   14.1310  -16.2484 C   0  0  0  0  0  0
  -18.7718   14.2451  -17.6156 C   0  0  0  0  0  0
  -19.1581   13.1315  -18.3636 C   0  0  0  0  0  0
  -19.2241   11.8763  -17.7647 C   0  0  0  0  0  0
  -18.9254   11.7398  -16.4104 C   0  0  0  0  0  0
  -18.5861   12.8640  -15.6478 C   0  0  0  0  0  0
  1  2  1  0  0  0
  2  3  1  0  0  0
  2  6  2  0  0  0
  3  4  1  0  0  0
  4  5  2  0  0  0
  5  6  1  0  0  0
  5 10  1  0  0  0
  6  7  1  0  0  0
  7  8  2  0  0  0
  8  9  1  0  0  0
  9 10  2  0  0  0
 10 11  1  0  0  0
 11 12  1  0  0  0
 11 20  1  0  0  0
 12 13  1  0  0  0
 13 14  1  0  0  0
 14 15  2  0  0  0
 14 19  1  0  0  0
 15 16  1  0  0  0
 16 17  2  0  0  0
 17 18  1  0  0  0
 18 19  2  0  0  0
 20 21  1  0  0  0
 21 22  2  0  0  0
 21 26  1  0  0  0
 22 23  1  0  0  0
 23 24  2  0  0  0
 24 25  1  0  0  0
 25 26  2  0  0  0
M  END
>  <CHROM.0>
-179.50028543,-166.69979560,72.83500239,62.39520732,-30.74431446,59.47972254
-36.97773748,-153.32796633

>  <CHROM.1>
-10.67821078,105.65934343,-86.36641793,-175.20812590,135.09164634,7.69383433
-18.64353291,17.19490557,-16.65971740,-0.11682000,0.08915703,0.02986195

>  <Name>
F2792-0016

>  <RI>
1.59973e+07

>  <Rbt.Current_Directory>
/home/adria/Escritorio/rDock_CMTR_LC/2pxcA_model/inputs_sah

>  <Rbt.Executable>
rbdock ($Id: //depot/dev/client3/rdock/2013.1/src/exe/rbdock.cxx#4 $)

>  <Rbt.Library>
libRbt.so (2013.1, Build901 2013/11/27)

>  <Rbt.Parameter_File>
/home/adria/Escritorio/rDock_2013.1_src/data/scripts/dock.prm

>  <Rbt.Receptor>
sah_rdock.prm

>  <SCORE>
-248.561

>  <SCORE.INTER>
-8.78641

>  <SCORE.INTER.CONST>
1

>  <SCORE.INTER.POLAR>
0

>  <SCORE.INTER.REPUL>
0.217739

>  <SCORE.INTER.ROT>
6

>  <SCORE.INTER.VDW>
-21.2751

>  <SCORE.INTER.norm>
-0.337939

>  <SCORE.INTRA>
-233.859

>  <SCORE.INTRA.DIHEDRAL>
-3.72733

>  <SCORE.INTRA.DIHEDRAL.0>
9.92383

>  <SCORE.INTRA.POLAR>
0

>  <SCORE.INTRA.POLAR.0>
0

>  <SCORE.INTRA.REPUL>
0

>  <SCORE.INTRA.REPUL.0>
0

>  <SCORE.INTRA.VDW>
-231.996

>  <SCORE.INTRA.VDW.0>
230.487

>  <SCORE.INTRA.norm>
-8.99459

>  <SCORE.RESTR>
0.125086

>  <SCORE.RESTR.CAVITY>
0.125086

>  <SCORE.RESTR.norm>
0.004811

>  <SCORE.SYSTEM>
-6.04034

>  <SCORE.SYSTEM.CONST>
0

>  <SCORE.SYSTEM.DIHEDRAL>
6.844

>  <SCORE.SYSTEM.POLAR>
-3.71601

>  <SCORE.SYSTEM.VDW>
3.17209

>  <SCORE.SYSTEM.norm>
-0.232321

>  <SCORE.heavy>
26

>  <SCORE.norm>
-9.56003

$$$$
F2792-0016
  rDOCK(R)          3D
libRbt.so/2013.1/901 2013/11/27
 26 29  0  0  0  0  0  0  0  0999 V2000
  -26.0283   19.3471   -9.9631 C   0  0  0  0  0  0
  -25.1929   20.2554  -11.2195 N   0  3  0  0  0  0
  -25.2894   22.2772  -11.5212 N   0  0  0  0  0  0
  -23.8124   22.8701  -10.6894 N   0  0  0  0  0  0
  -22.6550   21.4000  -10.3304 C   0  0  0  0  0  0
  -23.5506   19.9522  -10.4074 C   0  0  0  0  0  0
  -23.0375   18.7015  -10.4218 N   0  0  0  0  0  0
  -21.7736   18.7126  -10.8627 C   0  0  0  0  0  0
  -21.0442   19.7313  -11.3994 N   0  0  0  0  0  0
  -21.4373   21.0763  -11.3718 C   0  0  0  0  0  0
  -21.0679   21.8153  -12.5735 N   0  0  0  0  0  0
  -19.9155   21.5236  -13.5647 C   0  0  0  0  0  0
  -20.0852   20.2838  -14.6421 C   0  0  0  0  0  0
  -18.9157   19.9553  -15.6077 C   0  0  0  0  0  0
  -18.0664   18.8271  -15.0232 C   0  0  0  0  0  0
  -16.9775   17.2859  -15.8777 C   0  0  0  0  0  0
  -17.1587   17.4864  -17.6993 C   0  0  0  0  0  0
  -18.0168   18.9572  -18.1662 C   0  0  0  0  0  0
  -18.8447   20.0493  -17.1303 C   0  0  0  0  0  0
  -21.5980   23.1857  -12.7067 C   0  0  0  0  0  0
  -21.1409   24.1321  -11.6158 C   0  0  0  0  0  0
  -19.8964   23.9346  -11.0037 C   0  0  0  0  0  0
  -19.4143   24.8345  -10.0517 C   0  0  0  0  0  0
  -20.1503   25.9717   -9.7296 C   0  0  0  0  0  0
  -21.3806   26.1960  -10.3441 C   0  0  0  0  0  0
  -21.8882   25.2688  -11.2622 C   0  0  0  0  0  0
  1  2  1  0  0  0
  2  3  1  0  0  0
  2  6  2  0  0  0
  3  4  1  0  0  0
  4  5  2  0  0  0
  5  6  1  0  0  0
  5 10  1  0  0  0
  6  7  1  0  0  0
  7  8  2  0  0  0
  8  9  1  0  0  0
  9 10  2  0  0  0
 10 11  1  0  0  0
 11 12  1  0  0  0
 11 20  1  0  0  0
 12 13  1  0  0  0
 13 14  1  0  0  0
 14 15  2  0  0  0
 14 19  1  0  0  0
 15 16  1  0  0  0
 16 17  2  0  0  0
 17 18  1  0  0  0
 18 19  2  0  0  0
 20 21  1  0  0  0
 21 22  2  0  0  0
 21 26  1  0  0  0
 22 23  1  0  0  0
 23 24  2  0  0  0
 24 25  1  0  0  0
 25 26  2  0  0  0
M  END
>  <CHROM.0>
-177.73664849,65.71122675,-47.12552572,64.20657670,-30.05478746,179.80658348
-156.55755337,-163.51486289

>  <CHROM.1>
179.74978880,75.78535884,61.75371614,-178.00559537,95.81324858,29.51623830
-21.14438225,21.29429537,-12.49081520,2.31566193,0.63410506,0.45371581

>  <Name>
F2792-0016

>  <RI>
1.59973e+07

>  <Rbt.Current_Directory>
/home/adria/Escritorio/rDock_CMTR_LC/2pxcA_model/inputs_sah

>  <Rbt.Executable>
rbdock ($Id: //depot/dev/client3/rdock/2013.1/src/exe/rbdock.cxx#4 $)

>  <Rbt.Library>
libRbt.so (2013.1, Build901 2013/11/27)

>  <Rbt.Parameter_File>
/home/adria/Escritorio/rDock_2013.1_src/data/scripts/dock.prm

>  <Rbt.Receptor>
sah_rdock.prm

>  <SCORE>
-252.174

>  <SCORE.INTER>
-10.7269

>  <SCORE.INTER.CONST>
1

>  <SCORE.INTER.POLAR>
-0.171163

>  <SCORE.INTER.REPUL>
0

>  <SCORE.INTER.ROT>
6

>  <SCORE.INTER.VDW>
-21.545

>  <SCORE.INTER.norm>
-0.412573

>  <SCORE.INTRA>
-234.449

>  <SCORE.INTRA.DIHEDRAL>
-3.08947

>  <SCORE.INTRA.DIHEDRAL.0>
9.92383

>  <SCORE.INTRA.POLAR>
0

>  <SCORE.INTRA.POLAR.0>
0

>  <SCORE.INTRA.REPUL>
0

>  <SCORE.INTRA.REPUL.0>
0

>  <SCORE.INTRA.VDW>
-232.904

>  <SCORE.INTRA.VDW.0>
230.487

>  <SCORE.INTRA.norm>
-9.01727

>  <SCORE.RESTR>
0

>  <SCORE.RESTR.CAVITY>
0

>  <SCORE.RESTR.norm>
0

>  <SCORE.SYSTEM>
-6.99826

>  <SCORE.SYSTEM.CONST>
0

>  <SCORE.SYSTEM.DIHEDRAL>
5.83604

>  <SCORE.SYSTEM.POLAR>
-3.73169

>  <SCORE.SYSTEM.VDW>
2.77146

>  <SCORE.SYSTEM.norm>
-0.269164

>  <SCORE.heavy>
26

>  <SCORE.norm>
-9.69901

$$$$
F2792-0016
  rDOCK(R)          3D
libRbt.so/2013.1/901 2013/11/27
 26 29  0  0  0  0  0  0  0  0999 V2000
  -20.7482   23.6024  -12.1106 C   0  0  0  0  0  0
  -20.8336   22.3669  -13.3626 N   0  3  0  0  0  0
  -19.5287   22.1280  -14.9210 N   0  0  0  0  0  0
  -18.4227   20.8492  -14.3154 N   0  0  0  0  0  0
  -19.1955   20.0162  -12.7863 C   0  0  0  0  0  0
  -20.3977   21.0374  -12.1415 C   0  0  0  0  0  0
  -21.3025   20.6993  -11.1956 N   0  0  0  0  0  0
  -21.4875   19.3738  -11.1688 C   0  0  0  0  0  0
  -21.0238   18.4094  -12.0130 N   0  0  0  0  0  0
  -20.0305   18.6240  -12.9783 C   0  0  0  0  0  0
  -20.2424   17.8706  -14.2087 N   0  0  0  0  0  0
  -19.3591   17.8374  -15.4793 C   0  0  0  0  0  0
  -18.4769   16.4794  -15.8017 C   0  0  0  0  0  0
  -17.5397   16.4620  -17.0384 C   0  0  0  0  0  0
  -16.1169   16.8216  -16.6118 C   0  0  0  0  0  0
  -14.2466   16.2476  -17.2927 C   0  0  0  0  0  0
  -14.5498   15.1042  -18.7041 C   0  0  0  0  0  0
  -16.2521   14.9740  -19.1546 C   0  0  0  0  0  0
  -17.6024   15.6111  -18.3050 C   0  0  0  0  0  0
  -21.6006   17.3461  -14.4478 C   0  0  0  0  0  0
  -22.3934   18.1320  -15.4717 C   0  0  0  0  0  0
  -22.0350   18.0666  -16.8244 C   0  0  0  0  0  0
  -22.7935   18.7163  -17.7998 C   0  0  0  0  0  0
  -23.9493   19.4052  -17.4418 C   0  0  0  0  0  0
  -24.3333   19.4631  -16.1035 C   0  0  0  0  0  0
  -23.5465   18.8539  -15.1186 C   0  0  0  0  0  0
  1  2  1  0  0  0
  2  3  1  0  0  0
  2  6  2  0  0  0
  3  4  1  0  0  0
  4  5  2  0  0  0
  5  6  1  0  0  0
  5 10  1  0  0  0
  6  7  1  0  0  0
  7  8  2  0  0  0
  8  9  1  0  0  0
  9 10  2  0  0  0
 10 11  1  0  0  0
 11 12  1  0  0  0
 11 20  1  0  0  0
 12 13  1  0  0  0
 13 14  1  0  0  0
 14 15  2  0  0  0
 14 19  1  0  0  0
 15 16  1  0  0  0
 16 17  2  0  0  0
 17 18  1  0  0  0
 18 19  2  0  0  0
 20 21  1  0  0  0
 21 22  2  0  0  0
 21 26  1  0  0  0
 22 23  1  0  0  0
 23 24  2  0  0  0
 24 25  1  0  0  0
 25 26  2  0  0  0
M  END
>  <CHROM.0>
-179.37407667,-70.42553217,-128.66143338,-58.83688240,-29.81418876,-175.74572266
-36.14309406,-159.58523741

>  <CHROM.1>
25.77623258,108.01548236,103.76327994,-177.25240678,95.93462530,70.59953144
-19.93262516,18.67815234,-15.07572982,-2.24609836,0.16987264,-2.24235525

>  <Name>
F2792-0016

>  <RI>
1.59973e+07

>  <Rbt.Current_Directory>
/home/adria/Escritorio/rDock_CMTR_LC/2pxcA_model/inputs_sah

>  <Rbt.Executable>
rbdock ($Id: //depot/dev/client3/rdock/2013.1/src/exe/rbdock.cxx#4 $)

>  <Rbt.Library>
libRbt.so (2013.1, Build901 2013/11/27)

>  <Rbt.Parameter_File>
/home/adria/Escritorio/rDock_2013.1_src/data/scripts/dock.prm

>  <Rbt.Receptor>
sah_rdock.prm

>  <SCORE>
-252.063

>  <SCORE.INTER>
-13.1755

>  <SCORE.INTER.CONST>
1

>  <SCORE.INTER.POLAR>
0

>  <SCORE.INTER.REPUL>
0.0342389

>  <SCORE.INTER.ROT>
6

>  <SCORE.INTER.VDW>
-24.7467

>  <SCORE.INTER.norm>
-0.50675

>  <SCORE.INTRA>
-232.391

>  <SCORE.INTRA.DIHEDRAL>
-2.22738

>  <SCORE.INTRA.DIHEDRAL.0>
9.92383

>  <SCORE.INTRA.POLAR>
0

>  <SCORE.INTRA.POLAR.0>
0

>  <SCORE.INTRA.REPUL>
0

>  <SCORE.INTRA.REPUL.0>
0

>  <SCORE.INTRA.VDW>
-231.278

>  <SCORE.INTRA.VDW.0>
230.487

>  <SCORE.INTRA.norm>
-8.93813

>  <SCORE.RESTR>
0

>  <SCORE.RESTR.CAVITY>
0

>  <SCORE.RESTR.norm>
0

>  <SCORE.SYSTEM>
-6.49612

>  <SCORE.SYSTEM.CONST>
0

>  <SCORE.SYSTEM.DIHEDRAL>
9.44467

>  <SCORE.SYSTEM.POLAR>
-4.51273

>  <SCORE.SYSTEM.REPUL>
0.0336177

>  <SCORE.SYSTEM.VDW>
3.95675

>  <SCORE.SYSTEM.norm>
-0.249851

>  <SCORE.heavy>
26

>  <SCORE.norm>
-9.69473

$$$$
F2792-0016
  rDOCK(R)          3D
libRbt.so/2013.1/901 2013/11/27
 26 29  0  0  0  0  0  0  0  0999 V2000
  -27.9284   24.4669  -11.9954 C   0  0  0  0  0  0
  -26.1818   24.2843  -11.8631 N   0  3  0  0  0  0
  -25.0731   24.4382  -10.1498 N   0  0  0  0  0  0
  -24.8734   22.7234   -9.6552 N   0  0  0  0  0  0
  -25.3515   21.5862  -11.1069 C   0  0  0  0  0  0
  -26.3015   22.4650  -12.2156 C   0  0  0  0  0  0
  -26.6439   22.0635  -13.4602 N   0  0  0  0  0  0
  -25.7768   21.1532  -13.9201 C   0  0  0  0  0  0
  -24.5972   20.7236  -13.3892 N   0  0  0  0  0  0
  -24.1745   21.0096  -12.0839 C   0  0  0  0  0  0
  -22.7359   21.2191  -11.9708 N   0  0  0  0  0  0
  -21.5902   20.3452  -12.5359 C   0  0  0  0  0  0
  -20.7571   20.8799  -13.8575 C   0  0  0  0  0  0
  -19.7056   19.9483  -14.5168 C   0  0  0  0  0  0
  -19.9864   19.8330  -16.0146 C   0  0  0  0  0  0
  -18.7651   19.5866  -17.6695 C   0  0  0  0  0  0
  -17.0458   19.4767  -17.0189 C   0  0  0  0  0  0
  -16.9588   19.4392  -15.2557 C   0  0  0  0  0  0
  -18.2445   19.7016  -14.1471 C   0  0  0  0  0  0
  -22.2749   22.1527  -10.9254 C   0  0  0  0  0  0
  -22.4569   23.6140  -11.2804 C   0  0  0  0  0  0
  -21.7694   24.5945  -10.5534 C   0  0  0  0  0  0
  -21.8558   25.9422  -10.9069 C   0  0  0  0  0  0
  -22.5962   26.3259  -12.0218 C   0  0  0  0  0  0
  -23.2695   25.3621  -12.7698 C   0  0  0  0  0  0
  -23.2242   24.0160  -12.3872 C   0  0  0  0  0  0
  1  2  1  0  0  0
  2  3  1  0  0  0
  2  6  2  0  0  0
  3  4  1  0  0  0
  4  5  2  0  0  0
  5  6  1  0  0  0
  5 10  1  0  0  0
  6  7  1  0  0  0
  7  8  2  0  0  0
  8  9  1  0  0  0
  9 10  2  0  0  0
 10 11  1  0  0  0
 11 12  1  0  0  0
 11 20  1  0  0  0
 12 13  1  0  0  0
 13 14  1  0  0  0
 14 15  2  0  0  0
 14 19  1  0  0  0
 15 16  1  0  0  0
 16 17  2  0  0  0
 17 18  1  0  0  0
 18 19  2  0  0  0
 20 21  1  0  0  0
 21 22  2  0  0  0
 21 26  1  0  0  0
 22 23  1  0  0  0
 23 24  2  0  0  0
 24 25  1  0  0  0
 25 26  2  0  0  0
M  END
>  <CHROM.0>
-62.71308436,-76.62625025,-44.09216389,147.39367834,168.54697972,60.87366580
-156.96154967,-172.16378306

>  <CHROM.1>
156.89840918,105.41167909,-77.01147366,-173.87430285,127.72326224,-163.85928949
-22.74484841,22.22294608,-12.81513780,2.44604711,0.13279974,0.63265133

>  <Name>
F2792-0016

>  <RI>
1.59973e+07

>  <Rbt.Current_Directory>
/home/adria/Escritorio/rDock_CMTR_LC/2pxcA_model/inputs_sah

>  <Rbt.Executable>
rbdock ($Id: //depot/dev/client3/rdock/2013.1/src/exe/rbdock.cxx#4 $)

>  <Rbt.Library>
libRbt.so (2013.1, Build901 2013/11/27)

>  <Rbt.Parameter_File>
/home/adria/Escritorio/rDock_2013.1_src/data/scripts/dock.prm

>  <Rbt.Receptor>
sah_rdock.prm

>  <SCORE>
-240.516

>  <SCORE.INTER>
-6.05077

>  <SCORE.INTER.CONST>
1

>  <SCORE.INTER.POLAR>
0

>  <SCORE.INTER.REPUL>
0.038494

>  <SCORE.INTER.ROT>
6

>  <SCORE.INTER.VDW>
-17.6432

>  <SCORE.INTER.norm>
-0.232722

>  <SCORE.INTRA>
-235.051

>  <SCORE.INTRA.DIHEDRAL>
-2.06247

>  <SCORE.INTRA.DIHEDRAL.0>
9.92383

>  <SCORE.INTRA.POLAR>
0

>  <SCORE.INTRA.POLAR.0>
0

>  <SCORE.INTRA.REPUL>
0

>  <SCORE.INTRA.REPUL.0>
0

>  <SCORE.INTRA.VDW>
-234.02

>  <SCORE.INTRA.VDW.0>
230.487

>  <SCORE.INTRA.norm>
-9.04042

>  <SCORE.RESTR>
0

>  <SCORE.RESTR.CAVITY>
0

>  <SCORE.RESTR.norm>
0

>  <SCORE.SYSTEM>
0.585895

>  <SCORE.SYSTEM.CONST>
0

>  <SCORE.SYSTEM.DIHEDRAL>
7.87264

>  <SCORE.SYSTEM.POLAR>
-3.98319

>  <SCORE.SYSTEM.REPUL>
0.0443582

>  <SCORE.SYSTEM.VDW>
9.97064

>  <SCORE.SYSTEM.norm>
0.0225344

>  <SCORE.heavy>
26

>  <SCORE.norm>
-9.2506

$$$$
F2792-0016
  rDOCK(R)          3D
libRbt.so/2013.1/901 2013/11/27
 26 29  0  0  0  0  0  0  0  0999 V2000
  -24.6868   16.9113  -11.0231 C   0  0  0  0  0  0
  -24.3415   18.5919  -11.4202 N   0  3  0  0  0  0
  -24.3268   20.1677  -10.1145 N   0  0  0  0  0  0
  -22.5828   20.3354   -9.7201 N   0  0  0  0  0  0
  -21.5516   19.3396  -10.9748 C   0  0  0  0  0  0
  -22.5558   18.1950  -11.7400 C   0  0  0  0  0  0
  -22.2363   17.4616  -12.8298 N   0  0  0  0  0  0
  -21.2699   18.0599  -13.5371 C   0  0  0  0  0  0
  -20.7146   19.2956  -13.3872 N   0  0  0  0  0  0
  -20.9096   20.1118  -12.2647 C   0  0  0  0  0  0
  -20.9832   21.5327  -12.5841 N   0  0  0  0  0  0
  -20.6094   22.2404  -13.9088 C   0  0  0  0  0  0
  -19.1733   21.8681  -14.6339 C   0  0  0  0  0  0
  -18.9333   20.4202  -15.1378 C   0  0  0  0  0  0
  -19.1026   20.3682  -16.6558 C   0  0  0  0  0  0
  -18.2102   19.2344  -18.1422 C   0  0  0  0  0  0
  -17.0342   18.1074  -17.2831 C   0  0  0  0  0  0
  -17.1316   18.1939  -15.5222 C   0  0  0  0  0  0
  -18.0192   19.3282  -14.5860 C   0  0  0  0  0  0
  -21.0864   22.4700  -11.4493 C   0  0  0  0  0  0
  -22.4725   23.0481  -11.2514 C   0  0  0  0  0  0
  -23.5229   22.6280  -12.0777 C   0  0  0  0  0  0
  -24.8259   23.0834  -11.8691 C   0  0  0  0  0  0
  -25.1068   23.9321  -10.8017 C   0  0  0  0  0  0
  -24.0783   24.3436   -9.9563 C   0  0  0  0  0  0
  -22.7628   23.9273  -10.1940 C   0  0  0  0  0  0
  1  2  1  0  0  0
  2  3  1  0  0  0
  2  6  2  0  0  0
  3  4  1  0  0  0
  4  5  2  0  0  0
  5  6  1  0  0  0
  5 10  1  0  0  0
  6  7  1  0  0  0
  7  8  2  0  0  0
  8  9  1  0  0  0
  9 10  2  0  0  0
 10 11  1  0  0  0
 11 12  1  0  0  0
 11 20  1  0  0  0
 12 13  1  0  0  0
 13 14  1  0  0  0
 14 15  2  0  0  0
 14 19  1  0  0  0
 15 16  1  0  0  0
 16 17  2  0  0  0
 17 18  1  0  0  0
 18 19  2  0  0  0
 20 21  1  0  0  0
 21 22  2  0  0  0
 21 26  1  0  0  0
 22 23  1  0  0  0
 23 24  2  0  0  0
 24 25  1  0  0  0
 25 26  2  0  0  0
M  END
>  <CHROM.0>
-60.72019970,66.25284712,72.52911333,151.54862682,168.23086700,-178.37280385
-155.82853180,-161.73586647

>  <CHROM.1>
-167.90735754,-47.11967426,-104.56415709,63.03281043,102.87483634,2.81922193
-21.49974972,20.48920311,-12.79262695,2.73947712,0.74316938,0.07236488

>  <Name>
F2792-0016

>  <RI>
1.59973e+07

>  <Rbt.Current_Directory>
/home/adria/Escritorio/rDock_CMTR_LC/2pxcA_model/inputs_sah

>  <Rbt.Executable>
rbdock ($Id: //depot/dev/client3/rdock/2013.1/src/exe/rbdock.cxx#4 $)

>  <Rbt.Library>
libRbt.so (2013.1, Build901 2013/11/27)

>  <Rbt.Parameter_File>
/home/adria/Escritorio/rDock_2013.1_src/data/scripts/dock.prm

>  <Rbt.Receptor>
sah_rdock.prm

>  <SCORE>
-241.693

>  <SCORE.INTER>
-6.37945

>  <SCORE.INTER.CONST>
1

>  <SCORE.INTER.POLAR>
0

>  <SCORE.INTER.REPUL>
0

>  <SCORE.INTER.ROT>
6

>  <SCORE.INTER.VDW>
-17.7795

>  <SCORE.INTER.norm>
-0.245364

>  <SCORE.INTRA>
-235.921

>  <SCORE.INTRA.DIHEDRAL>
-4.147

>  <SCORE.INTRA.DIHEDRAL.0>
9.92383

>  <SCORE.INTRA.POLAR>
0

>  <SCORE.INTRA.POLAR.0>
0

>  <SCORE.INTRA.REPUL>
0

>  <SCORE.INTRA.REPUL.0>
0

>  <SCORE.INTRA.VDW>
-233.848

>  <SCORE.INTRA.VDW.0>
230.487

>  <SCORE.INTRA.norm>
-9.07389

>  <SCORE.RESTR>
0

>  <SCORE.RESTR.CAVITY>
0

>  <SCORE.RESTR.norm>
0

>  <SCORE.SYSTEM>
0.607372

>  <SCORE.SYSTEM.CONST>
0

>  <SCORE.SYSTEM.DIHEDRAL>
6.27541

>  <SCORE.SYSTEM.POLAR>
-3.74012

>  <SCORE.SYSTEM.VDW>
10.1861

>  <SCORE.SYSTEM.norm>
0.0233604

>  <SCORE.heavy>
26

>  <SCORE.norm>
-9.2959

$$$$
F2792-0016
  rDOCK(R)          3D
libRbt.so/2013.1/901 2013/11/27
 26 29  0  0  0  0  0  0  0  0999 V2000
  -16.1165   17.1685  -18.4632 C   0  0  0  0  0  0
  -17.7237   17.4130  -17.7859 N   0  3  0  0  0  0
  -18.7824   16.0705  -16.6612 N   0  0  0  0  0  0
  -18.4451   16.6115  -14.9823 N   0  0  0  0  0  0
  -17.6858   18.3583  -15.0208 C   0  0  0  0  0  0
  -17.0726   18.6666  -16.5806 C   0  0  0  0  0  0
  -16.6580   19.8657  -17.0476 N   0  0  0  0  0  0
  -17.2235   20.8642  -16.3583 C   0  0  0  0  0  0
  -18.2055   20.8276  -15.4138 N   0  0  0  0  0  0
  -18.6604   19.6521  -14.8009 C   0  0  0  0  0  0
  -20.0921   19.6565  -14.5243 N   0  0  0  0  0  0
  -20.9738   20.8332  -14.0408 C   0  0  0  0  0  0
  -20.2402   22.2207  -13.5277 C   0  0  0  0  0  0
  -21.0177   23.1873  -12.5954 C   0  0  0  0  0  0
  -20.2629   23.3493  -11.2763 C   0  0  0  0  0  0
  -20.0600   24.9233   -9.9450 C   0  0  0  0  0  0
  -21.0741   26.2999  -10.6291 C   0  0  0  0  0  0
  -22.0144   25.8448  -12.0525 C   0  0  0  0  0  0
  -21.9096   24.3780  -12.9406 C   0  0  0  0  0  0
  -20.7422   18.3455  -14.3359 C   0  0  0  0  0  0
  -21.7482   17.9959  -15.4130 C   0  0  0  0  0  0
  -23.0145   17.5193  -15.0500 C   0  0  0  0  0  0
  -23.9889   17.2635  -16.0164 C   0  0  0  0  0  0
  -23.7265   17.5233  -17.3588 C   0  0  0  0  0  0
  -22.4797   18.0179  -17.7365 C   0  0  0  0  0  0
  -21.4849   18.2278  -16.7740 C   0  0  0  0  0  0
  1  2  1  0  0  0
  2  3  1  0  0  0
  2  6  2  0  0  0
  3  4  1  0  0  0
  4  5  2  0  0  0
  5  6  1  0  0  0
  5 10  1  0  0  0
  6  7  1  0  0  0
  7  8  2  0  0  0
  8  9  1  0  0  0
  9 10  2  0  0  0
 10 11  1  0  0  0
 11 12  1  0  0  0
 11 20  1  0  0  0
 12 13  1  0  0  0
 13 14  1  0  0  0
 14 15  2  0  0  0
 14 19  1  0  0  0
 15 16  1  0  0  0
 16 17  2  0  0  0
 17 18  1  0  0  0
 18 19  2  0  0  0
 20 21  1  0  0  0
 21 22  2  0  0  0
 21 26  1  0  0  0
 22 23  1  0  0  0
 23 24  2  0  0  0
 24 25  1  0  0  0
 25 26  2  0  0  0
M  END
>  <CHROM.0>
-179.82125348,-72.42301827,70.95619596,65.20896552,29.72225854,-177.23939596
-36.25662961,-159.80196848

>  <CHROM.1>
166.69923318,-10.75733716,-114.05380410,-158.46331650,120.10147489,-132.10910585
-20.01824664,20.00736204,-14.93044080,-1.36942081,0.15254371,0.60413410

>  <Name>
F2792-0016

>  <RI>
1.59973e+07

>  <Rbt.Current_Directory>
/home/adria/Escritorio/rDock_CMTR_LC/2pxcA_model/inputs_sah

>  <Rbt.Executable>
rbdock ($Id: //depot/dev/client3/rdock/2013.1/src/exe/rbdock.cxx#4 $)

>  <Rbt.Library>
libRbt.so (2013.1, Build901 2013/11/27)

>  <Rbt.Parameter_File>
/home/adria/Escritorio/rDock_2013.1_src/data/scripts/dock.prm

>  <Rbt.Receptor>
sah_rdock.prm

>  <SCORE>
-243.303

>  <SCORE.INTER>
-13.8253

>  <SCORE.INTER.CONST>
1

>  <SCORE.INTER.POLAR>
-0.678678

>  <SCORE.INTER.REPUL>
0

>  <SCORE.INTER.ROT>
6

>  <SCORE.INTER.VDW>
-22.9178

>  <SCORE.INTER.norm>
-0.531741

>  <SCORE.INTRA>
-234.021

>  <SCORE.INTRA.DIHEDRAL>
-2.15808

>  <SCORE.INTRA.DIHEDRAL.0>
9.92383

>  <SCORE.INTRA.POLAR>
0

>  <SCORE.INTRA.POLAR.0>
0

>  <SCORE.INTRA.REPUL>
0

>  <SCORE.INTRA.REPUL.0>
0

>  <SCORE.INTRA.VDW>
-232.942

>  <SCORE.INTRA.VDW.0>
230.487

>  <SCORE.INTRA.norm>
-9.00081

>  <SCORE.RESTR>
0

>  <SCORE.RESTR.CAVITY>
0

>  <SCORE.RESTR.norm>
0

>  <SCORE.SYSTEM>
4.54306

>  <SCORE.SYSTEM.CONST>
0

>  <SCORE.SYSTEM.DIHEDRAL>
6.62092

>  <SCORE.SYSTEM.POLAR>
-3.75558

>  <SCORE.SYSTEM.REPUL>
0.0374889

>  <SCORE.SYSTEM.VDW>
13.8141

>  <SCORE.SYSTEM.norm>
0.174733

>  <SCORE.heavy>
26

>  <SCORE.norm>
-9.35782

$$$$
F2792-0016
  rDOCK(R)          3D
libRbt.so/2013.1/901 2013/11/27
 26 29  0  0  0  0  0  0  0  0999 V2000
  -16.3296   12.3480  -16.6591 C   0  0  0  0  0  0
  -16.1931   14.0982  -16.5184 N   0  3  0  0  0  0
  -16.0881   15.4341  -18.0650 N   0  0  0  0  0  0
  -17.7875   15.9945  -18.2169 N   0  0  0  0  0  0
  -18.7652   15.4779  -16.6656 C   0  0  0  0  0  0
  -17.9284   14.2250  -15.8694 C   0  0  0  0  0  0
  -18.1974   13.7526  -14.6316 N   0  0  0  0  0  0
  -18.8463   14.6703  -13.9045 C   0  0  0  0  0  0
  -19.1172   15.9763  -14.1857 N   0  0  0  0  0  0
  -18.9540   16.5559  -15.4513 C   0  0  0  0  0  0
  -18.4930   17.9385  -15.4030 N   0  0  0  0  0  0
  -18.5957   18.9453  -14.2320 C   0  0  0  0  0  0
  -19.6248   18.6143  -12.9839 C   0  0  0  0  0  0
  -21.1158   18.3139  -13.2920 C   0  0  0  0  0  0
  -22.0061   19.3113  -12.5515 C   0  0  0  0  0  0
  -23.8360   20.1758  -12.9932 C   0  0  0  0  0  0
  -24.3523   19.4697  -14.6138 C   0  0  0  0  0  0
  -23.2792   18.1978  -15.2042 C   0  0  0  0  0  0
  -21.7603   17.7342  -14.5494 C   0  0  0  0  0  0
  -18.2091   18.5955  -16.6932 C   0  0  0  0  0  0
  -16.7645   19.0177  -16.8652 C   0  0  0  0  0  0
  -15.9329   18.3031  -17.7371 C   0  0  0  0  0  0
  -14.6206   18.7152  -17.9758 C   0  0  0  0  0  0
  -14.1335   19.8755  -17.3801 C   0  0  0  0  0  0
  -14.9533   20.6112  -16.5266 C   0  0  0  0  0  0
  -16.2530   20.1719  -16.2474 C   0  0  0  0  0  0
  1  2  1  0  0  0
  2  3  1  0  0  0
  2  6  2  0  0  0
  3  4  1  0  0  0
  4  5  2  0  0  0
  5  6  1  0  0  0
  5 10  1  0  0  0
  6  7  1  0  0  0
  7  8  2  0  0  0
  8  9  1  0  0  0
  9 10  2  0  0  0
 10 11  1  0  0  0
 11 12  1  0  0  0
 11 20  1  0  0  0
 12 13  1  0  0  0
 13 14  1  0  0  0
 14 15  2  0  0  0
 14 19  1  0  0  0
 15 16  1  0  0  0
 16 17  2  0  0  0
 17 18  1  0  0  0
 18 19  2  0  0  0
 20 21  1  0  0  0
 21 22  2  0  0  0
 21 26  1  0  0  0
 22 23  1  0  0  0
 23 24  2  0  0  0
 24 25  1  0  0  0
 25 26  2  0  0  0
M  END
>  <CHROM.0>
-174.64959913,68.36149738,72.81506569,64.62189960,168.36307430,-176.59705971
-156.00218600,-54.27968332

>  <CHROM.1>
-176.29479330,-15.39529808,-117.61438284,-54.15549880,-121.87853177,106.84523135
-18.51527858,17.36451648,-15.60016999,0.29390678,-0.48113224,-3.13675981

>  <Name>
F2792-0016

>  <RI>
1.59973e+07

>  <Rbt.Current_Directory>
/home/adria/Escritorio/rDock_CMTR_LC/2pxcA_model/inputs_sah

>  <Rbt.Executable>
rbdock ($Id: //depot/dev/client3/rdock/2013.1/src/exe/rbdock.cxx#4 $)

>  <Rbt.Library>
libRbt.so (2013.1, Build901 2013/11/27)

>  <Rbt.Parameter_File>
/home/adria/Escritorio/rDock_2013.1_src/data/scripts/dock.prm

>  <Rbt.Receptor>
sah_rdock.prm

>  <SCORE>
-247.202

>  <SCORE.INTER>
-11.6002

>  <SCORE.INTER.CONST>
1

>  <SCORE.INTER.POLAR>
-0.458333

>  <SCORE.INTER.REPUL>
0

>  <SCORE.INTER.ROT>
6

>  <SCORE.INTER.VDW>
-21.4419

>  <SCORE.INTER.norm>
-0.446162

>  <SCORE.INTRA>
-235.584

>  <SCORE.INTRA.DIHEDRAL>
-4.57432

>  <SCORE.INTRA.DIHEDRAL.0>
9.92383

>  <SCORE.INTRA.POLAR>
0

>  <SCORE.INTRA.POLAR.0>
0

>  <SCORE.INTRA.REPUL>
0

>  <SCORE.INTRA.REPUL.0>
0

>  <SCORE.INTRA.VDW>
-233.297

>  <SCORE.INTRA.VDW.0>
230.487

>  <SCORE.INTRA.norm>
-9.06093

>  <SCORE.RESTR>
0

>  <SCORE.RESTR.CAVITY>
0

>  <SCORE.RESTR.norm>
0

>  <SCORE.SYSTEM>
-0.0173436

>  <SCORE.SYSTEM.CONST>
0

>  <SCORE.SYSTEM.DIHEDRAL>
6.05697

>  <SCORE.SYSTEM.POLAR>
-3.35968

>  <SCORE.SYSTEM.REPUL>
0.000810657

>  <SCORE.SYSTEM.VDW>
8.37302

>  <SCORE.SYSTEM.norm>
-0.00066706

>  <SCORE.heavy>
26

>  <SCORE.norm>
-9.50776

$$$$
F2792-0016
  rDOCK(R)          3D
libRbt.so/2013.1/901 2013/11/27
 26 29  0  0  0  0  0  0  0  0999 V2000
  -22.2038   26.6596   -9.0428 C   0  0  0  0  0  0
  -22.6115   24.9542   -9.2076 N   0  3  0  0  0  0
  -24.3934   24.1918   -9.8646 N   0  0  0  0  0  0
  -24.0616   23.8533  -11.5967 N   0  0  0  0  0  0
  -22.1826   23.9144  -11.9049 C   0  0  0  0  0  0
  -21.4351   24.7659  -10.6321 C   0  0  0  0  0  0
  -20.1061   24.8293  -10.3925 N   0  0  0  0  0  0
  -19.4757   23.7812  -10.9368 C   0  0  0  0  0  0
  -19.9869   22.6654  -11.5295 N   0  0  0  0  0  0
  -21.3315   22.5188  -11.8967 C   0  0  0  0  0  0
  -21.8386   21.1630  -11.7197 N   0  0  0  0  0  0
  -21.1164   19.8229  -11.9988 C   0  0  0  0  0  0
  -20.8268   19.3843  -13.5642 C   0  0  0  0  0  0
  -19.5250   18.6114  -13.9048 C   0  0  0  0  0  0
  -19.8742   17.2148  -14.4182 C   0  0  0  0  0  0
  -18.9851   15.9494  -15.7963 C   0  0  0  0  0  0
  -17.4823   16.8286  -16.3961 C   0  0  0  0  0  0
  -17.1577   18.3380  -15.5394 C   0  0  0  0  0  0
  -18.1794   19.1297  -14.4078 C   0  0  0  0  0  0
  -23.3004   21.0052  -11.5969 C   0  0  0  0  0  0
  -23.7436   20.3558  -10.3021 C   0  0  0  0  0  0
  -24.7145   19.3464  -10.3301 C   0  0  0  0  0  0
  -25.0859   18.6756   -9.1635 C   0  0  0  0  0  0
  -24.4587   18.9735   -7.9567 C   0  0  0  0  0  0
  -23.4753   19.9599   -7.9135 C   0  0  0  0  0  0
  -23.1372   20.6678   -9.0731 C   0  0  0  0  0  0
  1  2  1  0  0  0
  2  3  1  0  0  0
  2  6  2  0  0  0
  3  4  1  0  0  0
  4  5  2  0  0  0
  5  6  1  0  0  0
  5 10  1  0  0  0
  6  7  1  0  0  0
  7  8  2  0  0  0
  8  9  1  0  0  0
  9 10  2  0  0  0
 10 11  1  0  0  0
 11 12  1  0  0  0
 11 20  1  0  0  0
 12 13  1  0  0  0
 13 14  1  0  0  0
 14 15  2  0  0  0
 14 19  1  0  0  0
 15 16  1  0  0  0
 16 17  2  0  0  0
 17 18  1  0  0  0
 18 19  2  0  0  0
 20 21  1  0  0  0
 21 22  2  0  0  0
 21 26  1  0  0  0
 22 23  1  0  0  0
 23 24  2  0  0  0
 24 25  1  0  0  0
 25 26  2  0  0  0
M  END
>  <CHROM.0>
40.13070132,-72.49895120,-10.07729545,67.41407860,-30.55073150,62.79348276
85.10386492,-161.96035216

>  <CHROM.1>
165.89474415,-70.52787134,-121.00853702,145.07757356,115.71908546,-134.94566363
-21.57952096,21.11373421,-11.55544006,-2.23631376,-0.69162827,-2.86626452

>  <Name>
F2792-0016

>  <RI>
1.59973e+07

>  <Rbt.Current_Directory>
/home/adria/Escritorio/rDock_CMTR_LC/2pxcA_model/inputs_sah

>  <Rbt.Executable>
rbdock ($Id: //depot/dev/client3/rdock/2013.1/src/exe/rbdock.cxx#4 $)

>  <Rbt.Library>
libRbt.so (2013.1, Build901 2013/11/27)

>  <Rbt.Parameter_File>
/home/adria/Escritorio/rDock_2013.1_src/data/scripts/dock.prm

>  <Rbt.Receptor>
sah_rdock.prm

>  <SCORE>
-241.601

>  <SCORE.INTER>
-6.82986

>  <SCORE.INTER.CONST>
1

>  <SCORE.INTER.POLAR>
0

>  <SCORE.INTER.REPUL>
0.0540783

>  <SCORE.INTER.ROT>
6

>  <SCORE.INTER.VDW>
-18.5003

>  <SCORE.INTER.norm>
-0.262687

>  <SCORE.INTRA>
-231.944

>  <SCORE.INTRA.DIHEDRAL>
1.73038

>  <SCORE.INTRA.DIHEDRAL.0>
9.92383

>  <SCORE.INTRA.POLAR>
0

>  <SCORE.INTRA.POLAR.0>
0

>  <SCORE.INTRA.REPUL>
0

>  <SCORE.INTRA.REPUL.0>
0

>  <SCORE.INTRA.VDW>
-232.809

>  <SCORE.INTRA.VDW.0>
230.487

>  <SCORE.INTRA.norm>
-8.92091

>  <SCORE.RESTR>
0

>  <SCORE.RESTR.CAVITY>
0

>  <SCORE.RESTR.norm>
0

>  <SCORE.SYSTEM>
-2.8276

>  <SCORE.SYSTEM.CONST>
0

>  <SCORE.SYSTEM.DIHEDRAL>
11.4651

>  <SCORE.SYSTEM.POLAR>
-4.51538

>  <SCORE.SYSTEM.REPUL>
0.160388

>  <SCORE.SYSTEM.VDW>
5.99019

>  <SCORE.SYSTEM.norm>
-0.108754

>  <SCORE.heavy>
26

>  <SCORE.norm>
-9.29235

$$$$
F2792-0016
  rDOCK(R)          3D
libRbt.so/2013.1/901 2013/11/27
 26 29  0  0  0  0  0  0  0  0999 V2000
  -25.5810   22.8156   -7.7177 C   0  0  0  0  0  0
  -24.0515   22.3338   -8.4456 N   0  3  0  0  0  0
  -22.8641   20.7761   -7.8524 N   0  0  0  0  0  0
  -23.3401   19.4655   -8.9842 N   0  0  0  0  0  0
  -24.3307   20.2084  -10.4320 C   0  0  0  0  0  0
  -24.9172   21.7428   -9.9785 C   0  0  0  0  0  0
  -25.4738   22.6559  -10.8056 N   0  0  0  0  0  0
  -25.0795   22.4540  -12.0688 C   0  0  0  0  0  0
  -24.1407   21.5996  -12.5653 N   0  0  0  0  0  0
  -23.5533   20.5643  -11.8253 C   0  0  0  0  0  0
  -22.1481   20.3439  -12.1468 N   0  0  0  0  0  0
  -21.1870   21.2654  -12.9359 C   0  0  0  0  0  0
  -20.1270   22.2156  -12.0991 C   0  0  0  0  0  0
  -20.5599   23.6465  -11.6828 C   0  0  0  0  0  0
  -22.0544   23.6603  -11.3634 C   0  0  0  0  0  0
  -23.2064   24.7428  -10.0247 C   0  0  0  0  0  0
  -22.0438   25.8771   -9.1570 C   0  0  0  0  0  0
  -20.4025   25.8387   -9.8067 C   0  0  0  0  0  0
  -19.7708   24.7410  -10.9674 C   0  0  0  0  0  0
  -21.6432   18.9624  -12.0318 C   0  0  0  0  0  0
  -21.0063   18.4314  -13.2995 C   0  0  0  0  0  0
  -19.6131   18.3060  -13.3750 C   0  0  0  0  0  0
  -19.0029   17.7469  -14.4993 C   0  0  0  0  0  0
  -19.7805   17.2628  -15.5479 C   0  0  0  0  0  0
  -21.1690   17.3594  -15.4810 C   0  0  0  0  0  0
  -21.7799   17.9649  -14.3762 C   0  0  0  0  0  0
  1  2  1  0  0  0
  2  3  1  0  0  0
  2  6  2  0  0  0
  3  4  1  0  0  0
  4  5  2  0  0  0
  5  6  1  0  0  0
  5 10  1  0  0  0
  6  7  1  0  0  0
  7  8  2  0  0  0
  8  9  1  0  0  0
  9 10  2  0  0  0
 10 11  1  0  0  0
 11 12  1  0  0  0
 11 20  1  0  0  0
 12 13  1  0  0  0
 13 14  1  0  0  0
 14 15  2  0  0  0
 14 19  1  0  0  0
 15 16  1  0  0  0
 16 17  2  0  0  0
 17 18  1  0  0  0
 18 19  2  0  0  0
 20 21  1  0  0  0
 21 22  2  0  0  0
 21 26  1  0  0  0
 22 23  1  0  0  0
 23 24  2  0  0  0
 24 25  1  0  0  0
 25 26  2  0  0  0
M  END
>  <CHROM.0>
39.67996341,-77.66425139,-45.02260273,-61.43919461,-31.14788526,61.31701939
-36.84201987,-160.63889253

>  <CHROM.1>
-140.63686443,100.07393813,124.23627705,-90.26868508,34.06028760,105.98878159
-22.28605173,21.27744154,-11.48044517,2.01067867,0.55100199,0.47696883

>  <Name>
F2792-0016

>  <RI>
1.59973e+07

>  <Rbt.Current_Directory>
/home/adria/Escritorio/rDock_CMTR_LC/2pxcA_model/inputs_sah

>  <Rbt.Executable>
rbdock ($Id: //depot/dev/client3/rdock/2013.1/src/exe/rbdock.cxx#4 $)

>  <Rbt.Library>
libRbt.so (2013.1, Build901 2013/11/27)

>  <Rbt.Parameter_File>
/home/adria/Escritorio/rDock_2013.1_src/data/scripts/dock.prm

>  <Rbt.Receptor>
sah_rdock.prm

>  <SCORE>
-241.978

>  <SCORE.INTER>
-7.39777

>  <SCORE.INTER.CONST>
1

>  <SCORE.INTER.POLAR>
-1.41532

>  <SCORE.INTER.REPUL>
1.01405

>  <SCORE.INTER.ROT>
6

>  <SCORE.INTER.VDW>
-19.056

>  <SCORE.INTER.norm>
-0.284529

>  <SCORE.INTRA>
-231.56

>  <SCORE.INTRA.DIHEDRAL>
2.55593

>  <SCORE.INTRA.DIHEDRAL.0>
9.92383

>  <SCORE.INTRA.POLAR>
0

>  <SCORE.INTRA.POLAR.0>
0

>  <SCORE.INTRA.REPUL>
0

>  <SCORE.INTRA.REPUL.0>
0

>  <SCORE.INTRA.VDW>
-232.838

>  <SCORE.INTRA.VDW.0>
230.487

>  <SCORE.INTRA.norm>
-8.90617

>  <SCORE.RESTR>
0

>  <SCORE.RESTR.CAVITY>
0

>  <SCORE.RESTR.norm>
0

>  <SCORE.SYSTEM>
-3.01943

>  <SCORE.SYSTEM.CONST>
0

>  <SCORE.SYSTEM.DIHEDRAL>
8.90617

>  <SCORE.SYSTEM.POLAR>
-4.02381

>  <SCORE.SYSTEM.REPUL>
0.170019

>  <SCORE.SYSTEM.VDW>
5.35833

>  <SCORE.SYSTEM.norm>
-0.116132

>  <SCORE.heavy>
26

>  <SCORE.norm>
-9.30683

$$$$
F2792-0016
  rDOCK(R)          3D
libRbt.so/2013.1/901 2013/11/27
 26 29  0  0  0  0  0  0  0  0999 V2000
  -18.7056   17.7533  -16.6203 C   0  0  0  0  0  0
  -19.9272   18.2136  -15.4382 N   0  3  0  0  0  0
  -20.2852   17.2952  -13.6447 N   0  0  0  0  0  0
  -19.3738   18.3228  -12.4877 N   0  0  0  0  0  0
  -18.9032   19.9637  -13.3335 C   0  0  0  0  0  0
  -19.0022   19.7696  -15.0236 C   0  0  0  0  0  0
  -18.9516   20.7616  -15.9407 N   0  0  0  0  0  0
  -19.3091   21.9305  -15.3949 C   0  0  0  0  0  0
  -19.8224   22.1981  -14.1609 N   0  0  0  0  0  0
  -19.8544   21.2739  -13.1078 C   0  0  0  0  0  0
  -21.0475   21.3803  -12.2762 N   0  0  0  0  0  0
  -21.5385   20.4132  -11.1720 C   0  0  0  0  0  0
  -23.1269   19.9620  -11.1559 C   0  0  0  0  0  0
  -24.1993   20.9853  -10.6967 C   0  0  0  0  0  0
  -23.7591   21.6410   -9.3883 C   0  0  0  0  0  0
  -24.0424   23.5294   -8.5852 C   0  0  0  0  0  0
  -25.0670   24.4512   -9.8066 C   0  0  0  0  0  0
  -25.6273   23.4557  -11.1530 C   0  0  0  0  0  0
  -25.1504   21.8476  -11.5239 C   0  0  0  0  0  0
  -22.1053   22.3000  -12.7367 C   0  0  0  0  0  0
  -22.0766   23.6577  -12.0657 C   0  0  0  0  0  0
  -21.2729   23.8553  -10.9355 C   0  0  0  0  0  0
  -21.1652   25.1147  -10.3429 C   0  0  0  0  0  0
  -21.8253   26.2071  -10.8991 C   0  0  0  0  0  0
  -22.6123   26.0340  -12.0359 C   0  0  0  0  0  0
  -22.7609   24.7621  -12.6020 C   0  0  0  0  0  0
  1  2  1  0  0  0
  2  3  1  0  0  0
  2  6  2  0  0  0
  3  4  1  0  0  0
  4  5  2  0  0  0
  5  6  1  0  0  0
  5 10  1  0  0  0
  6  7  1  0  0  0
  7  8  2  0  0  0
  8  9  1  0  0  0
  9 10  2  0  0  0
 10 11  1  0  0  0
 11 12  1  0  0  0
 11 20  1  0  0  0
 12 13  1  0  0  0
 13 14  1  0  0  0
 14 15  2  0  0  0
 14 19  1  0  0  0
 15 16  1  0  0  0
 16 17  2  0  0  0
 17 18  1  0  0  0
 18 19  2  0  0  0
 20 21  1  0  0  0
 21 22  2  0  0  0
 21 26  1  0  0  0
 22 23  1  0  0  0
 23 24  2  0  0  0
 24 25  1  0  0  0
 25 26  2  0  0  0
M  END
>  <CHROM.0>
-61.27247998,-167.91257689,-166.78204714,65.04851980,-30.44801596,-177.42678423
83.29373128,-160.74291068

>  <CHROM.1>
14.88210916,-133.53777481,-98.31858342,-73.51337047,-47.96947562,-12.00401060
-21.56785997,21.75244354,-12.44415132,0.73003226,-0.74748913,-3.06950093

>  <Name>
F2792-0016

>  <RI>
1.59973e+07

>  <Rbt.Current_Directory>
/home/adria/Escritorio/rDock_CMTR_LC/2pxcA_model/inputs_sah

>  <Rbt.Executable>
rbdock ($Id: //depot/dev/client3/rdock/2013.1/src/exe/rbdock.cxx#4 $)

>  <Rbt.Library>
libRbt.so (2013.1, Build901 2013/11/27)

>  <Rbt.Parameter_File>
/home/adria/Escritorio/rDock_2013.1_src/data/scripts/dock.prm

>  <Rbt.Receptor>
sah_rdock.prm

>  <SCORE>
-254.756

>  <SCORE.INTER>
-13.7498

>  <SCORE.INTER.CONST>
1

>  <SCORE.INTER.POLAR>
-0.879186

>  <SCORE.INTER.REPUL>
0

>  <SCORE.INTER.ROT>
6

>  <SCORE.INTER.VDW>
-22.1606

>  <SCORE.INTER.norm>
-0.52884

>  <SCORE.INTRA>
-234.819

>  <SCORE.INTRA.DIHEDRAL>
-3.54118

>  <SCORE.INTRA.DIHEDRAL.0>
9.92383

>  <SCORE.INTRA.POLAR>
0

>  <SCORE.INTRA.POLAR.0>
0

>  <SCORE.INTRA.REPUL>
0

>  <SCORE.INTRA.REPUL.0>
0

>  <SCORE.INTRA.VDW>
-233.048

>  <SCORE.INTRA.VDW.0>
230.487

>  <SCORE.INTRA.norm>
-9.03149

>  <SCORE.RESTR>
0

>  <SCORE.RESTR.CAVITY>
0

>  <SCORE.RESTR.norm>
0

>  <SCORE.SYSTEM>
-6.18718

>  <SCORE.SYSTEM.CONST>
0

>  <SCORE.SYSTEM.DIHEDRAL>
6.47954

>  <SCORE.SYSTEM.POLAR>
-3.65051

>  <SCORE.SYSTEM.VDW>
2.98477

>  <SCORE.SYSTEM.norm>
-0.237969

>  <SCORE.heavy>
26

>  <SCORE.norm>
-9.7983

$$$$
F2792-0016
  rDOCK(R)          3D
libRbt.so/2013.1/901 2013/11/27
 26 29  0  0  0  0  0  0  0  0999 V2000
  -23.9980   16.7616  -14.0696 C   0  0  0  0  0  0
  -22.8665   18.0683  -13.7324 N   0  3  0  0  0  0
  -21.7428   18.2914  -12.0365 N   0  0  0  0  0  0
  -20.1577   17.6004  -12.5213 N   0  0  0  0  0  0
  -20.1015   17.4138  -14.4163 C   0  0  0  0  0  0
  -21.6918   17.4439  -15.0280 C   0  0  0  0  0  0
  -22.0394   17.5533  -16.3299 N   0  0  0  0  0  0
  -21.0562   18.1240  -17.0367 C   0  0  0  0  0  0
  -19.8962   18.7006  -16.6127 N   0  0  0  0  0  0
  -19.3955   18.5876  -15.3086 C   0  0  0  0  0  0
  -18.7332   19.7964  -14.8327 N   0  0  0  0  0  0
  -19.0037   20.5922  -13.5331 C   0  0  0  0  0  0
  -20.3508   21.5432  -13.4463 C   0  0  0  0  0  0
  -20.8094   22.0812  -12.0649 C   0  0  0  0  0  0
  -20.4139   23.5510  -11.9271 C   0  0  0  0  0  0
  -21.2769   25.1647  -10.9564 C   0  0  0  0  0  0
  -22.7878   24.5110  -10.1312 C   0  0  0  0  0  0
  -22.9579   22.7579  -10.2548 C   0  0  0  0  0  0
  -22.0111   21.6878  -11.2085 C   0  0  0  0  0  0
  -17.9622   20.5721  -15.8231 C   0  0  0  0  0  0
  -16.7681   19.8329  -16.3907 C   0  0  0  0  0  0
  -16.9582   18.6101  -17.0474 C   0  0  0  0  0  0
  -15.8884   17.9449  -17.6489 C   0  0  0  0  0  0
  -14.6182   18.5150  -17.6416 C   0  0  0  0  0  0
  -14.4143   19.7412  -17.0117 C   0  0  0  0  0  0
  -15.4760   20.3855  -16.3652 C   0  0  0  0  0  0
  1  2  1  0  0  0
  2  3  1  0  0  0
  2  6  2  0  0  0
  3  4  1  0  0  0
  4  5  2  0  0  0
  5  6  1  0  0  0
  5 10  1  0  0  0
  6  7  1  0  0  0
  7  8  2  0  0  0
  8  9  1  0  0  0
  9 10  2  0  0  0
 10 11  1  0  0  0
 11 12  1  0  0  0
 11 20  1  0  0  0
 12 13  1  0  0  0
 13 14  1  0  0  0
 14 15  2  0  0  0
 14 19  1  0  0  0
 15 16  1  0  0  0
 16 17  2  0  0  0
 17 18  1  0  0  0
 18 19  2  0  0  0
 20 21  1  0  0  0
 21 22  2  0  0  0
 21 26  1  0  0  0
 22 23  1  0  0  0
 23 24  2  0  0  0
 24 25  1  0  0  0
 25 26  2  0  0  0
M  END
>  <CHROM.0>
-177.81286308,-167.92709490,-46.45011316,63.06307959,-32.18422514,63.42096814
81.84353226,-162.99181655

>  <CHROM.1>
-28.26303723,-75.16770875,-64.25462331,166.04364661,102.87266645,58.36953104
-19.78436524,19.81635097,-14.35369330,2.37533099,0.46183589,0.58388595

>  <Name>
F2792-0016

>  <RI>
1.59973e+07

>  <Rbt.Current_Directory>
/home/adria/Escritorio/rDock_CMTR_LC/2pxcA_model/inputs_sah

>  <Rbt.Executable>
rbdock ($Id: //depot/dev/client3/rdock/2013.1/src/exe/rbdock.cxx#4 $)

>  <Rbt.Library>
libRbt.so (2013.1, Build901 2013/11/27)

>  <Rbt.Parameter_File>
/home/adria/Escritorio/rDock_2013.1_src/data/scripts/dock.prm

>  <Rbt.Receptor>
sah_rdock.prm

>  <SCORE>
-253.172

>  <SCORE.INTER>
-15.4752

>  <SCORE.INTER.CONST>
1

>  <SCORE.INTER.POLAR>
-0.770266

>  <SCORE.INTER.REPUL>
0.12534

>  <SCORE.INTER.ROT>
6

>  <SCORE.INTER.VDW>
-24.883

>  <SCORE.INTER.norm>
-0.595199

>  <SCORE.INTRA>
-231.852

>  <SCORE.INTRA.DIHEDRAL>
1.616

>  <SCORE.INTRA.DIHEDRAL.0>
9.92383

>  <SCORE.INTRA.POLAR>
0

>  <SCORE.INTRA.POLAR.0>
0

>  <SCORE.INTRA.REPUL>
0

>  <SCORE.INTRA.REPUL.0>
0

>  <SCORE.INTRA.VDW>
-232.66

>  <SCORE.INTRA.VDW.0>
230.487

>  <SCORE.INTRA.norm>
-8.91739

>  <SCORE.RESTR>
0

>  <SCORE.RESTR.CAVITY>
0

>  <SCORE.RESTR.norm>
0

>  <SCORE.SYSTEM>
-5.84477

>  <SCORE.SYSTEM.CONST>
0

>  <SCORE.SYSTEM.DIHEDRAL>
5.88309

>  <SCORE.SYSTEM.POLAR>
-3.58975

>  <SCORE.SYSTEM.VDW>
3.41885

>  <SCORE.SYSTEM.norm>
-0.224799

>  <SCORE.heavy>
26

>  <SCORE.norm>
-9.73739

$$$$
F2792-0016
  rDOCK(R)          3D
libRbt.so/2013.1/901 2013/11/27
 26 29  0  0  0  0  0  0  0  0999 V2000
  -26.8550   24.0631  -10.0494 C   0  0  0  0  0  0
  -25.1818   23.5156  -10.0027 N   0  3  0  0  0  0
  -24.5216   21.6889   -9.3583 N   0  0  0  0  0  0
  -24.3443   20.7714  -10.8919 N   0  0  0  0  0  0
  -24.3971   21.9810  -12.3628 C   0  0  0  0  0  0
  -25.1075   23.4450  -11.8569 C   0  0  0  0  0  0
  -25.1211   24.6031  -12.5542 N   0  0  0  0  0  0
  -24.1177   24.6351  -13.4398 C   0  0  0  0  0  0
  -23.0743   23.7747  -13.6096 N   0  0  0  0  0  0
  -22.9904   22.5144  -13.0022 C   0  0  0  0  0  0
  -21.6344   22.1447  -12.6137 N   0  0  0  0  0  0
  -21.1773   20.9576  -11.7321 C   0  0  0  0  0  0
  -20.6288   19.5840  -12.4665 C   0  0  0  0  0  0
  -19.3730   19.6617  -13.3748 C   0  0  0  0  0  0
  -19.0271   18.2673  -13.8961 C   0  0  0  0  0  0
  -18.1882   17.5837  -15.6625 C   0  0  0  0  0  0
  -17.8280   19.0846  -16.6668 C   0  0  0  0  0  0
  -18.1244   20.5979  -15.8068 C   0  0  0  0  0  0
  -18.8840   20.7917  -14.2782 C   0  0  0  0  0  0
  -20.5900   23.1762  -12.7627 C   0  0  0  0  0  0
  -20.5498   24.1808  -11.6296 C   0  0  0  0  0  0
  -21.6872   24.9459  -11.3413 C   0  0  0  0  0  0
  -21.7058   25.8223  -10.2548 C   0  0  0  0  0  0
  -20.6012   25.9137   -9.4121 C   0  0  0  0  0  0
  -19.4686   25.1444   -9.6708 C   0  0  0  0  0  0
  -19.4302   24.3021  -10.7886 C   0  0  0  0  0  0
  1  2  1  0  0  0
  2  3  1  0  0  0
  2  6  2  0  0  0
  3  4  1  0  0  0
  4  5  2  0  0  0
  5  6  1  0  0  0
  5 10  1  0  0  0
  6  7  1  0  0  0
  7  8  2  0  0  0
  8  9  1  0  0  0
  9 10  2  0  0  0
 10 11  1  0  0  0
 11 12  1  0  0  0
 11 20  1  0  0  0
 12 13  1  0  0  0
 13 14  1  0  0  0
 14 15  2  0  0  0
 14 19  1  0  0  0
 15 16  1  0  0  0
 16 17  2  0  0  0
 17 18  1  0  0  0
 18 19  2  0  0  0
 20 21  1  0  0  0
 21 22  2  0  0  0
 21 26  1  0  0  0
 22 23  1  0  0  0
 23 24  2  0  0  0
 24 25  1  0  0  0
 25 26  2  0  0  0
M  END
>  <CHROM.0>
-179.89509615,-168.78441070,-47.38434241,65.16551900,168.56556138,-57.12181908
83.49037050,-164.73406661

>  <CHROM.1>
14.40538335,98.51099064,80.88319878,61.21623578,177.84810985,-58.49192254
-21.76548149,22.43458109,-12.25929685,2.30388893,0.16962923,0.55245260

>  <Name>
F2792-0016

>  <RI>
1.59973e+07

>  <Rbt.Current_Directory>
/home/adria/Escritorio/rDock_CMTR_LC/2pxcA_model/inputs_sah

>  <Rbt.Executable>
rbdock ($Id: //depot/dev/client3/rdock/2013.1/src/exe/rbdock.cxx#4 $)

>  <Rbt.Library>
libRbt.so (2013.1, Build901 2013/11/27)

>  <Rbt.Parameter_File>
/home/adria/Escritorio/rDock_2013.1_src/data/scripts/dock.prm

>  <Rbt.Receptor>
sah_rdock.prm

>  <SCORE>
-248.622

>  <SCORE.INTER>
-13.6806

>  <SCORE.INTER.CONST>
1

>  <SCORE.INTER.POLAR>
-0.029251

>  <SCORE.INTER.REPUL>
0

>  <SCORE.INTER.ROT>
6

>  <SCORE.INTER.VDW>
-24.9812

>  <SCORE.INTER.norm>
-0.526178

>  <SCORE.INTRA>
-233.94

>  <SCORE.INTRA.DIHEDRAL>
-2.1389

>  <SCORE.INTRA.DIHEDRAL.0>
9.92383

>  <SCORE.INTRA.POLAR>
0

>  <SCORE.INTRA.POLAR.0>
0

>  <SCORE.INTRA.REPUL>
0

>  <SCORE.INTRA.REPUL.0>
0

>  <SCORE.INTRA.VDW>
-232.871

>  <SCORE.INTRA.VDW.0>
230.487

>  <SCORE.INTRA.norm>
-8.9977

>  <SCORE.RESTR>
0

>  <SCORE.RESTR.CAVITY>
0

>  <SCORE.RESTR.norm>
0

>  <SCORE.SYSTEM>
-1.00149

>  <SCORE.SYSTEM.CONST>
0

>  <SCORE.SYSTEM.DIHEDRAL>
3.2905

>  <SCORE.SYSTEM.POLAR>
-3.54778

>  <SCORE.SYSTEM.VDW>
9.41571

>  <SCORE.SYSTEM.norm>
-0.038519

>  <SCORE.heavy>
26

>  <SCORE.norm>
-9.56239

$$$$
F2792-0016
  rDOCK(R)          3D
libRbt.so/2013.1/901 2013/11/27
 26 29  0  0  0  0  0  0  0  0999 V2000
  -24.4605   17.5755  -13.4590 C   0  0  0  0  0  0
  -23.1048   18.6389  -13.0948 N   0  3  0  0  0  0
  -21.8174   18.4638  -11.5136 N   0  0  0  0  0  0
  -20.4152   17.6092  -12.2408 N   0  0  0  0  0  0
  -20.5545   17.6667  -14.1399 C   0  0  0  0  0  0
  -22.1651   18.0186  -14.5715 C   0  0  0  0  0  0
  -22.6012   18.3496  -15.8076 N   0  0  0  0  0  0
  -21.6025   18.8519  -16.5440 C   0  0  0  0  0  0
  -20.3313   19.1844  -16.1817 N   0  0  0  0  0  0
  -19.7451   18.8262  -14.9600 C   0  0  0  0  0  0
  -18.8545   19.8471  -14.4204 N   0  0  0  0  0  0
  -18.7878   20.3976  -12.9755 C   0  0  0  0  0  0
  -20.1424   21.0743  -12.3168 C   0  0  0  0  0  0
  -20.3769   22.6005  -12.4704 C   0  0  0  0  0  0
  -21.5869   22.8479  -13.3707 C   0  0  0  0  0  0
  -23.0364   24.3269  -13.4200 C   0  0  0  0  0  0
  -22.6109   25.4992  -12.0650 C   0  0  0  0  0  0
  -21.0751   25.1361  -11.2731 C   0  0  0  0  0  0
  -20.0993   23.7393  -11.4913 C   0  0  0  0  0  0
  -18.1687   20.7197  -15.3926 C   0  0  0  0  0  0
  -17.1688   19.9969  -16.2715 C   0  0  0  0  0  0
  -15.8208   20.3771  -16.2446 C   0  0  0  0  0  0
  -14.8638   19.6792  -16.9835 C   0  0  0  0  0  0
  -15.2336   18.5612  -17.7263 C   0  0  0  0  0  0
  -16.5664   18.1553  -17.7479 C   0  0  0  0  0  0
  -17.5354   18.8837  -17.0473 C   0  0  0  0  0  0
  1  2  1  0  0  0
  2  3  1  0  0  0
  2  6  2  0  0  0
  3  4  1  0  0  0
  4  5  2  0  0  0
  5  6  1  0  0  0
  5 10  1  0  0  0
  6  7  1  0  0  0
  7  8  2  0  0  0
  8  9  1  0  0  0
  9 10  2  0  0  0
 10 11  1  0  0  0
 11 12  1  0  0  0
 11 20  1  0  0  0
 12 13  1  0  0  0
 13 14  1  0  0  0
 14 15  2  0  0  0
 14 19  1  0  0  0
 15 16  1  0  0  0
 16 17  2  0  0  0
 17 18  1  0  0  0
 18 19  2  0  0  0
 20 21  1  0  0  0
 21 22  2  0  0  0
 21 26  1  0  0  0
 22 23  1  0  0  0
 23 24  2  0  0  0
 24 25  1  0  0  0
 25 26  2  0  0  0
M  END
>  <CHROM.0>
-61.54615624,67.56344303,73.33317248,-60.88367458,168.21527766,-179.02692995
-40.07754068,-157.36770015

>  <CHROM.1>
-21.65865460,-57.75551705,-66.05262732,-91.16415563,112.64358689,-119.74410623
-19.98983669,20.16801911,-14.35158128,2.44647819,0.46371590,0.41764099

>  <Name>
F2792-0016

>  <RI>
1.59973e+07

>  <Rbt.Current_Directory>
/home/adria/Escritorio/rDock_CMTR_LC/2pxcA_model/inputs_sah

>  <Rbt.Executable>
rbdock ($Id: //depot/dev/client3/rdock/2013.1/src/exe/rbdock.cxx#4 $)

>  <Rbt.Library>
libRbt.so (2013.1, Build901 2013/11/27)

>  <Rbt.Parameter_File>
/home/adria/Escritorio/rDock_2013.1_src/data/scripts/dock.prm

>  <Rbt.Receptor>
sah_rdock.prm

>  <SCORE>
-250.22

>  <SCORE.INTER>
-16.1876

>  <SCORE.INTER.CONST>
1

>  <SCORE.INTER.POLAR>
-0.609751

>  <SCORE.INTER.REPUL>
0.0181397

>  <SCORE.INTER.ROT>
6

>  <SCORE.INTER.VDW>
-25.6052

>  <SCORE.INTER.norm>
-0.622602

>  <SCORE.INTRA>
-231.863

>  <SCORE.INTRA.DIHEDRAL>
2.04257

>  <SCORE.INTRA.DIHEDRAL.0>
9.92383

>  <SCORE.INTRA.POLAR>
0

>  <SCORE.INTRA.POLAR.0>
0

>  <SCORE.INTRA.REPUL>
0

>  <SCORE.INTRA.REPUL.0>
0

>  <SCORE.INTRA.VDW>
-232.884

>  <SCORE.INTRA.VDW.0>
230.487

>  <SCORE.INTRA.norm>
-8.91781

>  <SCORE.RESTR>
0

>  <SCORE.RESTR.CAVITY>
0

>  <SCORE.RESTR.norm>
0

>  <SCORE.SYSTEM>
-2.16965

>  <SCORE.SYSTEM.CONST>
0

>  <SCORE.SYSTEM.DIHEDRAL>
2.98655

>  <SCORE.SYSTEM.POLAR>
-3.58611

>  <SCORE.SYSTEM.VDW>
8.52987

>  <SCORE.SYSTEM.norm>
-0.0834479

>  <SCORE.heavy>
26

>  <SCORE.norm>
-9.62386

$$$$
F2792-0016
  rDOCK(R)          3D
libRbt.so/2013.1/901 2013/11/27
 26 29  0  0  0  0  0  0  0  0999 V2000
  -14.7641   15.2307  -18.8632 C   0  0  0  0  0  0
  -16.3153   16.0160  -18.5830 N   0  3  0  0  0  0
  -17.8584   15.2841  -17.4555 N   0  0  0  0  0  0
  -17.6227   16.1138  -15.8804 N   0  0  0  0  0  0
  -16.4027   17.5599  -16.1032 C   0  0  0  0  0  0
  -15.5133   17.3245  -17.5376 C   0  0  0  0  0  0
  -14.7147   18.2372  -18.1350 N   0  0  0  0  0  0
  -15.0662   19.4792  -17.7802 C   0  0  0  0  0  0
  -16.1416   19.9120  -17.0633 N   0  0  0  0  0  0
  -16.9923   19.0663  -16.3384 C   0  0  0  0  0  0
  -18.3884   19.4868  -16.3611 N   0  0  0  0  0  0
  -19.6003   18.7612  -16.9938 C   0  0  0  0  0  0
  -20.3319   17.5457  -16.1487 C   0  0  0  0  0  0
  -21.3407   17.9059  -15.0258 C   0  0  0  0  0  0
  -20.8462   17.3497  -13.6910 C   0  0  0  0  0  0
  -21.0153   18.0060  -11.7335 C   0  0  0  0  0  0
  -22.0069   19.5563  -11.8025 C   0  0  0  0  0  0
  -22.6401   19.9188  -13.4103 C   0  0  0  0  0  0
  -22.2562   19.1198  -14.8818 C   0  0  0  0  0  0
  -18.6654   20.9066  -16.0706 C   0  0  0  0  0  0
  -19.1761   21.1603  -14.6672 C   0  0  0  0  0  0
  -18.6971   20.3834  -13.6045 C   0  0  0  0  0  0
  -19.0895   20.6451  -12.2906 C   0  0  0  0  0  0
  -19.9331   21.7176  -12.0140 C   0  0  0  0  0  0
  -20.4025   22.5147  -13.0561 C   0  0  0  0  0  0
  -20.0496   22.2231  -14.3792 C   0  0  0  0  0  0
  1  2  1  0  0  0
  2  3  1  0  0  0
  2  6  2  0  0  0
  3  4  1  0  0  0
  4  5  2  0  0  0
  5  6  1  0  0  0
  5 10  1  0  0  0
  6  7  1  0  0  0
  7  8  2  0  0  0
  8  9  1  0  0  0
  9 10  2  0  0  0
 10 11  1  0  0  0
 11 12  1  0  0  0
 11 20  1  0  0  0
 12 13  1  0  0  0
 13 14  1  0  0  0
 14 15  2  0  0  0
 14 19  1  0  0  0
 15 16  1  0  0  0
 16 17  2  0  0  0
 17 18  1  0  0  0
 18 19  2  0  0  0
 20 21  1  0  0  0
 21 22  2  0  0  0
 21 26  1  0  0  0
 22 23  1  0  0  0
 23 24  2  0  0  0
 24 25  1  0  0  0
 25 26  2  0  0  0
M  END
>  <CHROM.0>
-61.28980686,-74.32037145,-164.63033025,63.85551775,-30.66773316,-59.54136805
-35.70309982,-169.31222119

>  <CHROM.1>
-40.39607511,81.97882411,-102.19132941,80.13888205,-119.69126455,35.07373369
-18.65023279,18.86134758,-15.43302883,0.66884236,-0.57976365,-2.77802252

>  <Name>
F2792-0016

>  <RI>
1.59973e+07

>  <Rbt.Current_Directory>
/home/adria/Escritorio/rDock_CMTR_LC/2pxcA_model/inputs_sah

>  <Rbt.Executable>
rbdock ($Id: //depot/dev/client3/rdock/2013.1/src/exe/rbdock.cxx#4 $)

>  <Rbt.Library>
libRbt.so (2013.1, Build901 2013/11/27)

>  <Rbt.Parameter_File>
/home/adria/Escritorio/rDock_2013.1_src/data/scripts/dock.prm

>  <Rbt.Receptor>
sah_rdock.prm

>  <SCORE>
-255.895

>  <SCORE.INTER>
-14.3115

>  <SCORE.INTER.CONST>
1

>  <SCORE.INTER.POLAR>
-0.69677

>  <SCORE.INTER.REPUL>
0

>  <SCORE.INTER.ROT>
6

>  <SCORE.INTER.VDW>
-23.3425

>  <SCORE.INTER.norm>
-0.550443

>  <SCORE.INTRA>
-234.138

>  <SCORE.INTRA.DIHEDRAL>
2.13936

>  <SCORE.INTRA.DIHEDRAL.0>
9.92383

>  <SCORE.INTRA.POLAR>
0

>  <SCORE.INTRA.POLAR.0>
0

>  <SCORE.INTRA.REPUL>
0

>  <SCORE.INTRA.REPUL.0>
0

>  <SCORE.INTRA.VDW>
-235.208

>  <SCORE.INTRA.VDW.0>
230.487

>  <SCORE.INTRA.norm>
-9.00532

>  <SCORE.RESTR>
0

>  <SCORE.RESTR.CAVITY>
0

>  <SCORE.RESTR.norm>
0

>  <SCORE.SYSTEM>
-7.44521

>  <SCORE.SYSTEM.CONST>
0

>  <SCORE.SYSTEM.DIHEDRAL>
6.50886

>  <SCORE.SYSTEM.POLAR>
-3.99278

>  <SCORE.SYSTEM.REPUL>
0.0408077

>  <SCORE.SYSTEM.VDW>
2.67179

>  <SCORE.SYSTEM.norm>
-0.286354

>  <SCORE.heavy>
26

>  <SCORE.norm>
-9.84212

$$$$
