F0422-0197
  rDOCK(R)          3D
libRbt.so/2013.1/901 2013/11/27
 23 24  0  0  0  0  0  0  0  0999 V2000
  -14.2170   18.6882  -18.1632 C   0  0  0  0  0  0
  -14.8711   19.0787  -16.9406 C   0  0  0  0  0  0
  -16.3237   19.1325  -17.1535 C   0  0  0  0  0  0
  -16.9281   19.5877  -15.8496 C   0  0  0  0  0  0
  -18.4910   19.7625  -15.8197 C   0  0  0  0  0  0
  -19.4047   20.2389  -14.5644 C   0  0  0  0  0  0
  -19.6872   19.5716  -12.7078 S   0  0  0  0  0  0
  -21.2025   20.1738  -11.8996 C   0  0  0  0  0  0
  -21.7935   21.3786  -12.1915 C   0  0  0  0  0  0
  -21.2507   22.1939  -13.2562 C   0  0  0  0  0  0
  -20.7775   22.8368  -14.0557 N   0  0  0  0  0  0
  -22.8959   22.0585  -11.2864 C   0  0  0  0  0  0
  -23.5022   20.9952  -10.3517 C   0  0  0  0  0  0
  -22.5005   19.9839   -9.8362 C   0  0  0  0  0  0
  -22.5265   19.5640   -8.6816 O   0  0  0  0  0  0
  -21.5929   19.4968  -10.7560 N   0  0  0  0  0  0
  -22.6051   23.3855  -10.4582 C   0  0  0  0  0  0
  -23.2016   24.0635   -9.3977 C   0  0  0  0  0  0
  -22.3147   25.1192   -8.9786 C   0  0  0  0  0  0
  -21.2267   25.0672   -9.8036 C   0  0  0  0  0  0
  -19.9307   25.8360   -9.8760 C   0  0  0  0  0  0
  -21.4456   24.0535  -10.7033 O   0  0  0  0  0  0
  -20.9977   18.7490  -10.4169 H   0  0  0  0  0  0
  1  2  1  0  0  0
  2  3  1  0  0  0
  3  4  1  0  0  0
  4  5  1  0  0  0
  5  6  1  0  0  0
  6  7  1  0  0  0
  7  8  1  0  0  0
  8  9  2  0  0  0
  8 16  1  0  0  0
  9 10  1  0  0  0
  9 12  1  0  0  0
 10 11  3  0  0  0
 12 13  1  0  0  0
 12 17  1  0  0  0
 13 14  1  0  0  0
 14 15  2  0  0  0
 14 16  1  0  0  0
 16 23  1  0  0  0
 17 18  2  0  0  0
 17 22  1  0  0  0
 18 19  1  0  0  0
 19 20  2  0  0  0
 20 21  1  0  0  0
 20 22  1  0  0  0
M  END
>  <CHROM.0>
-59.10150818,-71.43257571,-127.45752246,-61.29131833,168.22191716,177.50132382
-157.46234221,-162.37860620

>  <CHROM.1>
-178.24774918,178.58957651,-179.87430681,-57.55907967,-161.62537217,-28.42057341
-163.46967585,-20.28054269,21.31697822,-12.45270447,-0.54108493,0.77433937
0.19037523

>  <Name>
F0422-0197

>  <RI>
2.2387e+07

>  <Rbt.Current_Directory>
/home/adria/Escritorio/rDock_CMTR_LC/2pxcA_model/inputs_sah

>  <Rbt.Executable>
rbdock ($Id: //depot/dev/client3/rdock/2013.1/src/exe/rbdock.cxx#4 $)

>  <Rbt.Library>
libRbt.so (2013.1, Build901 2013/11/27)

>  <Rbt.Parameter_File>
/home/adria/Escritorio/rDock_2013.1_src/data/scripts/dock.prm

>  <Rbt.Receptor>
sah_rdock.prm

>  <SCORE>
-41.3547

>  <SCORE.INTER>
-13.1216

>  <SCORE.INTER.CONST>
1

>  <SCORE.INTER.POLAR>
-0.767672

>  <SCORE.INTER.REPUL>
0.130497

>  <SCORE.INTER.ROT>
7

>  <SCORE.INTER.VDW>
-23.564

>  <SCORE.INTER.norm>
-0.596435

>  <SCORE.INTRA>
-26.0561

>  <SCORE.INTRA.DIHEDRAL>
-11.0144

>  <SCORE.INTRA.DIHEDRAL.0>
14.0204

>  <SCORE.INTRA.POLAR>
0

>  <SCORE.INTRA.POLAR.0>
0

>  <SCORE.INTRA.REPUL>
0

>  <SCORE.INTRA.REPUL.0>
0

>  <SCORE.INTRA.VDW>
-20.5489

>  <SCORE.INTRA.VDW.0>
19.2467

>  <SCORE.INTRA.norm>
-1.18437

>  <SCORE.RESTR>
0

>  <SCORE.RESTR.CAVITY>
0

>  <SCORE.RESTR.norm>
0

>  <SCORE.SYSTEM>
-2.17708

>  <SCORE.SYSTEM.CONST>
0

>  <SCORE.SYSTEM.DIHEDRAL>
6.33562

>  <SCORE.SYSTEM.POLAR>
-4.47122

>  <SCORE.SYSTEM.REPUL>
0.0356171

>  <SCORE.SYSTEM.VDW>
9.67917

>  <SCORE.SYSTEM.norm>
-0.0989581

>  <SCORE.heavy>
22

>  <SCORE.norm>
-1.87976

$$$$
F0422-0197
  rDOCK(R)          3D
libRbt.so/2013.1/901 2013/11/27
 23 24  0  0  0  0  0  0  0  0999 V2000
  -24.0175   25.3627  -12.8389 C   0  0  0  0  0  0
  -23.2462   24.1647  -13.0510 C   0  0  0  0  0  0
  -21.8185   24.4579  -12.8672 C   0  0  0  0  0  0
  -21.0791   23.1800  -13.1725 C   0  0  0  0  0  0
  -21.1264   22.0577  -12.0714 C   0  0  0  0  0  0
  -20.5024   20.5611  -12.1636 C   0  0  0  0  0  0
  -18.7959   19.7978  -12.8543 S   0  0  0  0  0  0
  -18.8053   19.3791  -14.6253 C   0  0  0  0  0  0
  -19.1526   18.1432  -15.1134 C   0  0  0  0  0  0
  -19.6230   17.1269  -14.1976 C   0  0  0  0  0  0
  -19.9370   16.3334  -13.4572 N   0  0  0  0  0  0
  -18.8530   17.6659  -16.5895 C   0  0  0  0  0  0
  -18.5664   18.8991  -17.4664 C   0  0  0  0  0  0
  -17.7856   19.9883  -16.7625 C   0  0  0  0  0  0
  -16.9040   20.6328  -17.3260 O   0  0  0  0  0  0
  -18.1661   20.2750  -15.4663 N   0  0  0  0  0  0
  -17.7832   16.5319  -16.9076 C   0  0  0  0  0  0
  -16.8378   15.8064  -16.1864 C   0  0  0  0  0  0
  -16.3179   14.7669  -17.0384 C   0  0  0  0  0  0
  -16.9392   14.9044  -18.2476 C   0  0  0  0  0  0
  -16.8977   14.1270  -19.5398 C   0  0  0  0  0  0
  -17.7744   15.9903  -18.1555 O   0  0  0  0  0  0
  -17.6996   21.0728  -15.0486 H   0  0  0  0  0  0
  1  2  1  0  0  0
  2  3  1  0  0  0
  3  4  1  0  0  0
  4  5  1  0  0  0
  5  6  1  0  0  0
  6  7  1  0  0  0
  7  8  1  0  0  0
  8  9  2  0  0  0
  8 16  1  0  0  0
  9 10  1  0  0  0
  9 12  1  0  0  0
 10 11  3  0  0  0
 12 13  1  0  0  0
 12 17  1  0  0  0
 13 14  1  0  0  0
 14 15  2  0  0  0
 14 16  1  0  0  0
 16 23  1  0  0  0
 17 18  2  0  0  0
 17 22  1  0  0  0
 18 19  1  0  0  0
 19 20  2  0  0  0
 20 21  1  0  0  0
 20 22  1  0  0  0
M  END
>  <CHROM.0>
-177.36383305,-170.28596773,-167.91113254,63.41031010,-30.20654684,62.63458363
83.05155862,-160.35126490

>  <CHROM.1>
-177.21802457,-75.79101429,176.08203352,42.11104862,-87.32905396,-91.36827353
-6.70420382,-19.14255399,19.22073635,-15.13654179,-2.81252088,-1.06428453
2.50411840

>  <Name>
F0422-0197

>  <RI>
2.2387e+07

>  <Rbt.Current_Directory>
/home/adria/Escritorio/rDock_CMTR_LC/2pxcA_model/inputs_sah

>  <Rbt.Executable>
rbdock ($Id: //depot/dev/client3/rdock/2013.1/src/exe/rbdock.cxx#4 $)

>  <Rbt.Library>
libRbt.so (2013.1, Build901 2013/11/27)

>  <Rbt.Parameter_File>
/home/adria/Escritorio/rDock_2013.1_src/data/scripts/dock.prm

>  <Rbt.Receptor>
sah_rdock.prm

>  <SCORE>
-43.3237

>  <SCORE.INTER>
-13.584

>  <SCORE.INTER.CONST>
1

>  <SCORE.INTER.POLAR>
-1.63048

>  <SCORE.INTER.REPUL>
0

>  <SCORE.INTER.ROT>
7

>  <SCORE.INTER.VDW>
-20.4403

>  <SCORE.INTER.norm>
-0.617453

>  <SCORE.INTRA>
-23.9944

>  <SCORE.INTRA.DIHEDRAL>
-6.58542

>  <SCORE.INTRA.DIHEDRAL.0>
14.0204

>  <SCORE.INTRA.POLAR>
0

>  <SCORE.INTRA.POLAR.0>
0

>  <SCORE.INTRA.REPUL>
0

>  <SCORE.INTRA.REPUL.0>
0

>  <SCORE.INTRA.VDW>
-20.7017

>  <SCORE.INTRA.VDW.0>
19.2467

>  <SCORE.INTRA.norm>
-1.09065

>  <SCORE.RESTR>
0

>  <SCORE.RESTR.CAVITY>
0

>  <SCORE.RESTR.norm>
0

>  <SCORE.SYSTEM>
-5.74538

>  <SCORE.SYSTEM.CONST>
0

>  <SCORE.SYSTEM.DIHEDRAL>
6.17653

>  <SCORE.SYSTEM.POLAR>
-3.60195

>  <SCORE.SYSTEM.VDW>
3.413

>  <SCORE.SYSTEM.norm>
-0.261154

>  <SCORE.heavy>
22

>  <SCORE.norm>
-1.96926

$$$$
F0422-0197
  rDOCK(R)          3D
libRbt.so/2013.1/901 2013/11/27
 23 24  0  0  0  0  0  0  0  0999 V2000
  -21.6239   26.2495   -9.4666 C   0  0  0  0  0  0
  -21.0616   25.4194  -10.5010 C   0  0  0  0  0  0
  -21.7227   24.1075  -10.4948 C   0  0  0  0  0  0
  -21.0224   23.2733  -11.5371 C   0  0  0  0  0  0
  -21.4932   21.7790  -11.6775 C   0  0  0  0  0  0
  -20.9454   20.6688  -12.7286 C   0  0  0  0  0  0
  -19.1862   19.7849  -13.0388 S   0  0  0  0  0  0
  -18.8120   19.4134  -14.7805 C   0  0  0  0  0  0
  -18.8462   18.1480  -15.3132 C   0  0  0  0  0  0
  -19.2839   17.0438  -14.4873 C   0  0  0  0  0  0
  -19.5784   16.1903  -13.8082 N   0  0  0  0  0  0
  -18.2139   17.7654  -16.7097 C   0  0  0  0  0  0
  -17.9992   19.0503  -17.5313 C   0  0  0  0  0  0
  -17.5570   20.2417  -16.7086 C   0  0  0  0  0  0
  -16.7173   21.0430  -17.1123 O   0  0  0  0  0  0
  -18.2028   20.4267  -15.5020 N   0  0  0  0  0  0
  -16.9228   16.8428  -16.8257 C   0  0  0  0  0  0
  -15.9443   16.3637  -15.9579 C   0  0  0  0  0  0
  -15.1487   15.3917  -16.6643 C   0  0  0  0  0  0
  -15.6472   15.3265  -17.9349 C   0  0  0  0  0  0
  -15.3188   14.4892  -19.1460 C   0  0  0  0  0  0
  -16.6752   16.2329  -18.0163 O   0  0  0  0  0  0
  -17.9639   21.2833  -15.0143 H   0  0  0  0  0  0
  1  2  1  0  0  0
  2  3  1  0  0  0
  3  4  1  0  0  0
  4  5  1  0  0  0
  5  6  1  0  0  0
  6  7  1  0  0  0
  7  8  1  0  0  0
  8  9  2  0  0  0
  8 16  1  0  0  0
  9 10  1  0  0  0
  9 12  1  0  0  0
 10 11  3  0  0  0
 12 13  1  0  0  0
 12 17  1  0  0  0
 13 14  1  0  0  0
 14 15  2  0  0  0
 14 16  1  0  0  0
 16 23  1  0  0  0
 17 18  2  0  0  0
 17 22  1  0  0  0
 18 19  1  0  0  0
 19 20  2  0  0  0
 20 21  1  0  0  0
 20 22  1  0  0  0
M  END
>  <CHROM.0>
-176.67126516,66.82008878,-167.22078621,64.71248781,29.50808751,59.68370594
-157.51415036,-162.88855785

>  <CHROM.1>
-176.40578254,176.72390454,178.53701995,63.33546557,-145.55547311,-106.44165356
-13.15943672,-18.59973708,19.44326557,-14.68566766,-2.39131351,-0.94128061
3.12905380

>  <Name>
F0422-0197

>  <RI>
2.2387e+07

>  <Rbt.Current_Directory>
/home/adria/Escritorio/rDock_CMTR_LC/2pxcA_model/inputs_sah

>  <Rbt.Executable>
rbdock ($Id: //depot/dev/client3/rdock/2013.1/src/exe/rbdock.cxx#4 $)

>  <Rbt.Library>
libRbt.so (2013.1, Build901 2013/11/27)

>  <Rbt.Parameter_File>
/home/adria/Escritorio/rDock_2013.1_src/data/scripts/dock.prm

>  <Rbt.Receptor>
sah_rdock.prm

>  <SCORE>
-34.0772

>  <SCORE.INTER>
-14.1923

>  <SCORE.INTER.CONST>
1

>  <SCORE.INTER.POLAR>
-1.60392

>  <SCORE.INTER.REPUL>
0

>  <SCORE.INTER.ROT>
7

>  <SCORE.INTER.VDW>
-21.139

>  <SCORE.INTER.norm>
-0.645104

>  <SCORE.INTRA>
-24.9539

>  <SCORE.INTRA.DIHEDRAL>
-8.03757

>  <SCORE.INTRA.DIHEDRAL.0>
14.0204

>  <SCORE.INTRA.POLAR>
0

>  <SCORE.INTRA.POLAR.0>
0

>  <SCORE.INTRA.REPUL>
0

>  <SCORE.INTRA.REPUL.0>
0

>  <SCORE.INTRA.VDW>
-20.9351

>  <SCORE.INTRA.VDW.0>
19.2467

>  <SCORE.INTRA.norm>
-1.13427

>  <SCORE.RESTR>
0

>  <SCORE.RESTR.CAVITY>
0

>  <SCORE.RESTR.norm>
0

>  <SCORE.SYSTEM>
5.06903

>  <SCORE.SYSTEM.CONST>
0

>  <SCORE.SYSTEM.DIHEDRAL>
5.99731

>  <SCORE.SYSTEM.POLAR>
-3.406

>  <SCORE.SYSTEM.VDW>
13.6508

>  <SCORE.SYSTEM.norm>
0.230411

>  <SCORE.heavy>
22

>  <SCORE.norm>
-1.54896

$$$$
F0422-0197
  rDOCK(R)          3D
libRbt.so/2013.1/901 2013/11/27
 23 24  0  0  0  0  0  0  0  0999 V2000
  -14.6196   19.5587  -17.2915 C   0  0  0  0  0  0
  -15.7690   19.7506  -16.4446 C   0  0  0  0  0  0
  -16.4945   18.4812  -16.3022 C   0  0  0  0  0  0
  -17.7058   18.7764  -15.4547 C   0  0  0  0  0  0
  -18.5695   17.5412  -15.0045 C   0  0  0  0  0  0
  -19.9437   17.5636  -14.1393 C   0  0  0  0  0  0
  -20.4727   18.3237  -12.3745 S   0  0  0  0  0  0
  -20.4864   20.1417  -12.2964 C   0  0  0  0  0  0
  -21.2081   20.8586  -11.3737 C   0  0  0  0  0  0
  -21.9378   20.1532  -10.3427 C   0  0  0  0  0  0
  -22.5417   19.5791   -9.5797 N   0  0  0  0  0  0
  -21.4945   22.4078  -11.4938 C   0  0  0  0  0  0
  -20.4937   23.0267  -12.4874 C   0  0  0  0  0  0
  -20.1707   22.1393  -13.6706 C   0  0  0  0  0  0
  -20.0351   22.5851  -14.8078 O   0  0  0  0  0  0
  -19.9617   20.8024  -13.3949 N   0  0  0  0  0  0
  -22.9513   22.9750  -11.7896 C   0  0  0  0  0  0
  -23.6352   24.1667  -11.5612 C   0  0  0  0  0  0
  -24.8903   24.1114  -12.2672 C   0  0  0  0  0  0
  -24.9421   22.8905  -12.8787 C   0  0  0  0  0  0
  -25.9327   22.2230  -13.8001 C   0  0  0  0  0  0
  -23.7942   22.2170  -12.5417 O   0  0  0  0  0  0
  -19.6489   20.2455  -14.1827 H   0  0  0  0  0  0
  1  2  1  0  0  0
  2  3  1  0  0  0
  3  4  1  0  0  0
  4  5  1  0  0  0
  5  6  1  0  0  0
  6  7  1  0  0  0
  7  8  1  0  0  0
  8  9  2  0  0  0
  8 16  1  0  0  0
  9 10  1  0  0  0
  9 12  1  0  0  0
 10 11  3  0  0  0
 12 13  1  0  0  0
 12 17  1  0  0  0
 13 14  1  0  0  0
 14 15  2  0  0  0
 14 16  1  0  0  0
 16 23  1  0  0  0
 17 18  2  0  0  0
 17 22  1  0  0  0
 18 19  1  0  0  0
 19 20  2  0  0  0
 20 21  1  0  0  0
 20 22  1  0  0  0
M  END
>  <CHROM.0>
-57.98699648,61.74002542,-7.56102478,66.61740843,-30.33386715,-58.03752347
-36.79167810,-160.80024908

>  <CHROM.1>
-177.73602859,-172.89577503,-177.69431519,-54.92609178,67.01672794,158.01996995
155.40142302,-20.74031662,20.74241323,-13.27370369,-0.15190449,0.63616321
-0.52254539

>  <Name>
F0422-0197

>  <RI>
2.2387e+07

>  <Rbt.Current_Directory>
/home/adria/Escritorio/rDock_CMTR_LC/2pxcA_model/inputs_sah

>  <Rbt.Executable>
rbdock ($Id: //depot/dev/client3/rdock/2013.1/src/exe/rbdock.cxx#4 $)

>  <Rbt.Library>
libRbt.so (2013.1, Build901 2013/11/27)

>  <Rbt.Parameter_File>
/home/adria/Escritorio/rDock_2013.1_src/data/scripts/dock.prm

>  <Rbt.Receptor>
sah_rdock.prm

>  <SCORE>
-45.8544

>  <SCORE.INTER>
-11.3715

>  <SCORE.INTER.CONST>
1

>  <SCORE.INTER.POLAR>
-0.79084

>  <SCORE.INTER.REPUL>
0

>  <SCORE.INTER.ROT>
7

>  <SCORE.INTER.VDW>
-21.0826

>  <SCORE.INTER.norm>
-0.516886

>  <SCORE.INTRA>
-27.5728

>  <SCORE.INTRA.DIHEDRAL>
-12.2333

>  <SCORE.INTRA.DIHEDRAL.0>
14.0204

>  <SCORE.INTRA.POLAR>
0

>  <SCORE.INTRA.POLAR.0>
0

>  <SCORE.INTRA.REPUL>
0

>  <SCORE.INTRA.REPUL.0>
0

>  <SCORE.INTRA.VDW>
-21.4561

>  <SCORE.INTRA.VDW.0>
19.2467

>  <SCORE.INTRA.norm>
-1.25331

>  <SCORE.RESTR>
0

>  <SCORE.RESTR.CAVITY>
0

>  <SCORE.RESTR.norm>
0

>  <SCORE.SYSTEM>
-6.91007

>  <SCORE.SYSTEM.CONST>
0

>  <SCORE.SYSTEM.DIHEDRAL>
8.94884

>  <SCORE.SYSTEM.POLAR>
-4.31364

>  <SCORE.SYSTEM.VDW>
3.28187

>  <SCORE.SYSTEM.norm>
-0.314094

>  <SCORE.heavy>
22

>  <SCORE.norm>
-2.08429

$$$$
F0422-0197
  rDOCK(R)          3D
libRbt.so/2013.1/901 2013/11/27
 23 24  0  0  0  0  0  0  0  0999 V2000
  -23.7461   24.4537  -13.4623 C   0  0  0  0  0  0
  -22.3496   24.1253  -13.3312 C   0  0  0  0  0  0
  -21.9365   24.2765  -11.9296 C   0  0  0  0  0  0
  -22.2240   22.9584  -11.2569 C   0  0  0  0  0  0
  -21.0891   21.8711  -11.3219 C   0  0  0  0  0  0
  -20.4644   21.1783  -12.6513 C   0  0  0  0  0  0
  -19.0847   19.7785  -12.9818 S   0  0  0  0  0  0
  -18.7674   19.4148  -14.7364 C   0  0  0  0  0  0
  -18.8411   18.1548  -15.2780 C   0  0  0  0  0  0
  -19.2763   17.0522  -14.4487 C   0  0  0  0  0  0
  -19.5679   16.1987  -13.7683 N   0  0  0  0  0  0
  -18.2561   17.7722  -16.6950 C   0  0  0  0  0  0
  -18.0401   19.0597  -17.5121 C   0  0  0  0  0  0
  -17.5519   20.2353  -16.6929 C   0  0  0  0  0  0
  -16.7087   21.0239  -17.1140 O   0  0  0  0  0  0
  -18.1594   20.4224  -15.4669 N   0  0  0  0  0  0
  -16.9869   16.8261  -16.8551 C   0  0  0  0  0  0
  -16.0050   16.3051  -16.0157 C   0  0  0  0  0  0
  -15.2416   15.3349  -16.7590 C   0  0  0  0  0  0
  -15.7615   15.3121  -18.0225 C   0  0  0  0  0  0
  -15.4702   14.4990  -19.2594 C   0  0  0  0  0  0
  -16.7713   16.2414  -18.0644 O   0  0  0  0  0  0
  -17.8903   21.2701  -14.9795 H   0  0  0  0  0  0
  1  2  1  0  0  0
  2  3  1  0  0  0
  3  4  1  0  0  0
  4  5  1  0  0  0
  5  6  1  0  0  0
  6  7  1  0  0  0
  7  8  1  0  0  0
  8  9  2  0  0  0
  8 16  1  0  0  0
  9 10  1  0  0  0
  9 12  1  0  0  0
 10 11  3  0  0  0
 12 13  1  0  0  0
 12 17  1  0  0  0
 13 14  1  0  0  0
 14 15  2  0  0  0
 14 16  1  0  0  0
 16 23  1  0  0  0
 17 18  2  0  0  0
 17 22  1  0  0  0
 18 19  1  0  0  0
 19 20  2  0  0  0
 20 21  1  0  0  0
 20 22  1  0  0  0
M  END
>  <CHROM.0>
-177.16936824,-73.07694522,-5.70204991,-61.10277426,167.81967649,57.00589372
-36.46715030,-166.19910612

>  <CHROM.1>
87.47799894,87.71708963,-61.66730430,-178.26031131,-178.96238464,-125.57446623
-11.96074275,-18.79293360,19.31616451,-15.03365925,-2.81533896,-0.96491335
2.58699725

>  <Name>
F0422-0197

>  <RI>
2.2387e+07

>  <Rbt.Current_Directory>
/home/adria/Escritorio/rDock_CMTR_LC/2pxcA_model/inputs_sah

>  <Rbt.Executable>
rbdock ($Id: //depot/dev/client3/rdock/2013.1/src/exe/rbdock.cxx#4 $)

>  <Rbt.Library>
libRbt.so (2013.1, Build901 2013/11/27)

>  <Rbt.Parameter_File>
/home/adria/Escritorio/rDock_2013.1_src/data/scripts/dock.prm

>  <Rbt.Receptor>
sah_rdock.prm

>  <SCORE>
-37.7063

>  <SCORE.INTER>
-13.6018

>  <SCORE.INTER.CONST>
1

>  <SCORE.INTER.POLAR>
-1.62763

>  <SCORE.INTER.REPUL>
0

>  <SCORE.INTER.ROT>
7

>  <SCORE.INTER.VDW>
-20.4678

>  <SCORE.INTER.norm>
-0.618264

>  <SCORE.INTRA>
-22.3102

>  <SCORE.INTRA.DIHEDRAL>
-5.1282

>  <SCORE.INTRA.DIHEDRAL.0>
14.0204

>  <SCORE.INTRA.POLAR>
0

>  <SCORE.INTRA.POLAR.0>
0

>  <SCORE.INTRA.REPUL>
0

>  <SCORE.INTRA.REPUL.0>
0

>  <SCORE.INTRA.VDW>
-19.7461

>  <SCORE.INTRA.VDW.0>
19.2467

>  <SCORE.INTRA.norm>
-1.0141

>  <SCORE.RESTR>
0

>  <SCORE.RESTR.CAVITY>
0

>  <SCORE.RESTR.norm>
0

>  <SCORE.SYSTEM>
-1.79432

>  <SCORE.SYSTEM.CONST>
0

>  <SCORE.SYSTEM.DIHEDRAL>
6.58206

>  <SCORE.SYSTEM.POLAR>
-4.49755

>  <SCORE.SYSTEM.REPUL>
0.0386726

>  <SCORE.SYSTEM.VDW>
10.0129

>  <SCORE.SYSTEM.norm>
-0.0815601

>  <SCORE.heavy>
22

>  <SCORE.norm>
-1.71392

$$$$
F0422-0197
  rDOCK(R)          3D
libRbt.so/2013.1/901 2013/11/27
 23 24  0  0  0  0  0  0  0  0999 V2000
  -21.7444   24.2667  -12.7261 C   0  0  0  0  0  0
  -21.8576   22.8385  -12.5766 C   0  0  0  0  0  0
  -20.5757   22.2040  -12.9117 C   0  0  0  0  0  0
  -20.7420   20.7330  -12.6270 C   0  0  0  0  0  0
  -19.4502   19.8425  -12.7396 C   0  0  0  0  0  0
  -18.6825   19.3886  -14.0969 C   0  0  0  0  0  0
  -17.8230   20.3613  -15.6092 S   0  0  0  0  0  0
  -16.8587   19.3149  -16.7437 C   0  0  0  0  0  0
  -17.3019   18.1091  -17.2293 C   0  0  0  0  0  0
  -18.6396   17.6639  -16.9049 C   0  0  0  0  0  0
  -19.6679   17.3130  -16.5951 N   0  0  0  0  0  0
  -16.3664   17.0485  -17.9338 C   0  0  0  0  0  0
  -15.0707   17.7464  -18.3875 C   0  0  0  0  0  0
  -14.5673   18.7994  -17.4234 C   0  0  0  0  0  0
  -13.3721   18.9481  -17.1791 O   0  0  0  0  0  0
  -15.5197   19.6407  -16.8829 N   0  0  0  0  0  0
  -16.0054   15.6577  -17.2503 C   0  0  0  0  0  0
  -15.4641   15.2409  -16.0365 C   0  0  0  0  0  0
  -15.5853   13.8073  -15.9547 C   0  0  0  0  0  0
  -16.1695   13.3966  -17.1197 C   0  0  0  0  0  0
  -16.6217   12.0580  -17.6484 C   0  0  0  0  0  0
  -16.3690   14.5144  -17.8916 O   0  0  0  0  0  0
  -15.1518   20.4000  -16.3200 H   0  0  0  0  0  0
  1  2  1  0  0  0
  2  3  1  0  0  0
  3  4  1  0  0  0
  4  5  1  0  0  0
  5  6  1  0  0  0
  6  7  1  0  0  0
  7  8  1  0  0  0
  8  9  2  0  0  0
  8 16  1  0  0  0
  9 10  1  0  0  0
  9 12  1  0  0  0
 10 11  3  0  0  0
 12 13  1  0  0  0
 12 17  1  0  0  0
 13 14  1  0  0  0
 14 15  2  0  0  0
 14 16  1  0  0  0
 16 23  1  0  0  0
 17 18  2  0  0  0
 17 22  1  0  0  0
 18 19  1  0  0  0
 19 20  2  0  0  0
 20 21  1  0  0  0
 20 22  1  0  0  0
M  END
>  <CHROM.0>
-61.90382051,-166.44517564,-8.12097449,59.21926548,-29.94172447,61.45263619
-158.60212722,-160.33617089

>  <CHROM.1>
175.61782540,-172.87490870,-72.90421053,58.85176166,170.15078290,45.12443706
-54.34323861,-17.51554521,18.31106573,-15.87685892,-2.21832869,-0.56727539
-2.98762980

>  <Name>
F0422-0197

>  <RI>
2.2387e+07

>  <Rbt.Current_Directory>
/home/adria/Escritorio/rDock_CMTR_LC/2pxcA_model/inputs_sah

>  <Rbt.Executable>
rbdock ($Id: //depot/dev/client3/rdock/2013.1/src/exe/rbdock.cxx#4 $)

>  <Rbt.Library>
libRbt.so (2013.1, Build901 2013/11/27)

>  <Rbt.Parameter_File>
/home/adria/Escritorio/rDock_2013.1_src/data/scripts/dock.prm

>  <Rbt.Receptor>
sah_rdock.prm

>  <SCORE>
-43.8114

>  <SCORE.INTER>
-12.0249

>  <SCORE.INTER.CONST>
1

>  <SCORE.INTER.POLAR>
-0.894427

>  <SCORE.INTER.REPUL>
0.0133331

>  <SCORE.INTER.ROT>
7

>  <SCORE.INTER.VDW>
-21.4505

>  <SCORE.INTER.norm>
-0.546587

>  <SCORE.INTRA>
-25.5136

>  <SCORE.INTRA.DIHEDRAL>
-8.41599

>  <SCORE.INTRA.DIHEDRAL.0>
14.0204

>  <SCORE.INTRA.POLAR>
0

>  <SCORE.INTRA.POLAR.0>
0

>  <SCORE.INTRA.REPUL>
0

>  <SCORE.INTRA.REPUL.0>
0

>  <SCORE.INTRA.VDW>
-21.3056

>  <SCORE.INTRA.VDW.0>
19.2467

>  <SCORE.INTRA.norm>
-1.15971

>  <SCORE.RESTR>
0

>  <SCORE.RESTR.CAVITY>
0

>  <SCORE.RESTR.norm>
0

>  <SCORE.SYSTEM>
-6.27292

>  <SCORE.SYSTEM.CONST>
0

>  <SCORE.SYSTEM.DIHEDRAL>
9.5062

>  <SCORE.SYSTEM.POLAR>
-4.3191

>  <SCORE.SYSTEM.VDW>
3.65893

>  <SCORE.SYSTEM.norm>
-0.285133

>  <SCORE.heavy>
22

>  <SCORE.norm>
-1.99143

$$$$
F0422-0197
  rDOCK(R)          3D
libRbt.so/2013.1/901 2013/11/27
 23 24  0  0  0  0  0  0  0  0999 V2000
  -14.8860   15.9393  -18.4546 C   0  0  0  0  0  0
  -15.0862   16.6425  -17.2134 C   0  0  0  0  0  0
  -16.3160   17.4422  -17.2921 C   0  0  0  0  0  0
  -17.4536   16.5056  -16.9735 C   0  0  0  0  0  0
  -18.9063   17.0999  -17.0765 C   0  0  0  0  0  0
  -19.5283   18.3334  -16.2225 C   0  0  0  0  0  0
  -19.0169   20.2395  -15.9439 S   0  0  0  0  0  0
  -19.4653   20.9231  -14.3181 C   0  0  0  0  0  0
  -19.5719   20.1661  -13.1771 C   0  0  0  0  0  0
  -19.2308   18.7610  -13.2254 C   0  0  0  0  0  0
  -19.0097   17.6556  -13.2999 N   0  0  0  0  0  0
  -20.2705   20.6682  -11.8519 C   0  0  0  0  0  0
  -20.3714   22.2045  -11.8898 C   0  0  0  0  0  0
  -20.6717   22.7691  -13.2619 C   0  0  0  0  0  0
  -21.4342   23.7183  -13.4287 O   0  0  0  0  0  0
  -19.9840   22.2075  -14.3196 N   0  0  0  0  0  0
  -21.6510   20.0609  -11.3450 C   0  0  0  0  0  0
  -22.4777   18.9986  -11.7033 C   0  0  0  0  0  0
  -23.5025   18.8632  -10.6992 C   0  0  0  0  0  0
  -23.2848   19.8521   -9.7817 C   0  0  0  0  0  0
  -23.9438   20.2351   -8.4798 C   0  0  0  0  0  0
  -22.2023   20.5777  -10.2137 O   0  0  0  0  0  0
  -20.1236   22.6652  -15.2137 H   0  0  0  0  0  0
  1  2  1  0  0  0
  2  3  1  0  0  0
  3  4  1  0  0  0
  4  5  1  0  0  0
  5  6  1  0  0  0
  6  7  1  0  0  0
  7  8  1  0  0  0
  8  9  2  0  0  0
  8 16  1  0  0  0
  9 10  1  0  0  0
  9 12  1  0  0  0
 10 11  3  0  0  0
 12 13  1  0  0  0
 12 17  1  0  0  0
 13 14  1  0  0  0
 14 15  2  0  0  0
 14 16  1  0  0  0
 16 23  1  0  0  0
 17 18  2  0  0  0
 17 22  1  0  0  0
 18 19  1  0  0  0
 19 20  2  0  0  0
 20 21  1  0  0  0
 20 22  1  0  0  0
M  END
>  <CHROM.0>
-61.46536101,-73.74449735,-164.72552964,-61.12981754,-30.30995260,-57.31503509
82.42860418,-162.69521687

>  <CHROM.1>
82.93761337,-176.36476874,-61.10195558,56.82079453,-149.01252593,28.38889343
8.17633999,-19.84285088,19.57863014,-13.81953001,0.24019697,-0.89073774,2.94418711

>  <Name>
F0422-0197

>  <RI>
2.2387e+07

>  <Rbt.Current_Directory>
/home/adria/Escritorio/rDock_CMTR_LC/2pxcA_model/inputs_sah

>  <Rbt.Executable>
rbdock ($Id: //depot/dev/client3/rdock/2013.1/src/exe/rbdock.cxx#4 $)

>  <Rbt.Library>
libRbt.so (2013.1, Build901 2013/11/27)

>  <Rbt.Parameter_File>
/home/adria/Escritorio/rDock_2013.1_src/data/scripts/dock.prm

>  <Rbt.Receptor>
sah_rdock.prm

>  <SCORE>
-43.0979

>  <SCORE.INTER>
-11.6495

>  <SCORE.INTER.CONST>
1

>  <SCORE.INTER.POLAR>
-0.824621

>  <SCORE.INTER.REPUL>
0

>  <SCORE.INTER.ROT>
7

>  <SCORE.INTER.VDW>
-21.2458

>  <SCORE.INTER.norm>
-0.529522

>  <SCORE.INTRA>
-24.2459

>  <SCORE.INTRA.DIHEDRAL>
-9.26314

>  <SCORE.INTRA.DIHEDRAL.0>
14.0204

>  <SCORE.INTRA.POLAR>
0

>  <SCORE.INTRA.POLAR.0>
0

>  <SCORE.INTRA.REPUL>
0

>  <SCORE.INTRA.REPUL.0>
0

>  <SCORE.INTRA.VDW>
-19.6143

>  <SCORE.INTRA.VDW.0>
19.2467

>  <SCORE.INTRA.norm>
-1.10209

>  <SCORE.RESTR>
0

>  <SCORE.RESTR.CAVITY>
0

>  <SCORE.RESTR.norm>
0

>  <SCORE.SYSTEM>
-7.20253

>  <SCORE.SYSTEM.CONST>
0

>  <SCORE.SYSTEM.DIHEDRAL>
6.54441

>  <SCORE.SYSTEM.POLAR>
-3.96219

>  <SCORE.SYSTEM.REPUL>
0.0398379

>  <SCORE.SYSTEM.VDW>
2.79751

>  <SCORE.SYSTEM.norm>
-0.327388

>  <SCORE.heavy>
22

>  <SCORE.norm>
-1.959

$$$$
F0422-0197
  rDOCK(R)          3D
libRbt.so/2013.1/901 2013/11/27
 23 24  0  0  0  0  0  0  0  0999 V2000
  -21.8689   26.1726   -9.5551 C   0  0  0  0  0  0
  -21.0969   26.0194  -10.7615 C   0  0  0  0  0  0
  -21.9586   25.5124  -11.8378 C   0  0  0  0  0  0
  -21.9573   24.0101  -11.7118 C   0  0  0  0  0  0
  -20.6717   23.2608  -12.2219 C   0  0  0  0  0  0
  -20.3349   21.6780  -12.0843 C   0  0  0  0  0  0
  -18.8609   20.5009  -12.7276 S   0  0  0  0  0  0
  -19.0908   19.8323  -14.4044 C   0  0  0  0  0  0
  -19.6294   18.5958  -14.6636 C   0  0  0  0  0  0
  -20.1284   17.7967  -13.5658 C   0  0  0  0  0  0
  -20.4629   17.1693  -12.6877 N   0  0  0  0  0  0
  -19.5327   17.8717  -16.0646 C   0  0  0  0  0  0
  -19.1856   18.9137  -17.1443 C   0  0  0  0  0  0
  -18.2155   19.9803  -16.6827 C   0  0  0  0  0  0
  -17.3210   20.4117  -17.4066 O   0  0  0  0  0  0
  -18.4324   20.5020  -15.4226 N   0  0  0  0  0  0
  -18.6425   16.5708  -16.2810 C   0  0  0  0  0  0
  -17.4533   16.2600  -16.9362 C   0  0  0  0  0  0
  -17.0749   14.9170  -16.5757 C   0  0  0  0  0  0
  -18.0477   14.4474  -15.7389 C   0  0  0  0  0  0
  -18.2369   13.1624  -14.9714 C   0  0  0  0  0  0
  -18.9914   15.4369  -15.6152 O   0  0  0  0  0  0
  -17.8354   21.2828  -15.1728 H   0  0  0  0  0  0
  1  2  1  0  0  0
  2  3  1  0  0  0
  3  4  1  0  0  0
  4  5  1  0  0  0
  5  6  1  0  0  0
  6  7  1  0  0  0
  7  8  1  0  0  0
  8  9  2  0  0  0
  8 16  1  0  0  0
  9 10  1  0  0  0
  9 12  1  0  0  0
 10 11  3  0  0  0
 12 13  1  0  0  0
 12 17  1  0  0  0
 13 14  1  0  0  0
 14 15  2  0  0  0
 14 16  1  0  0  0
 16 23  1  0  0  0
 17 18  2  0  0  0
 17 22  1  0  0  0
 18 19  1  0  0  0
 19 20  2  0  0  0
 20 21  1  0  0  0
 20 22  1  0  0  0
M  END
>  <CHROM.0>
39.78558846,-72.91368354,71.74070837,66.84130476,-31.18056031,-178.14979932
-156.89345692,-165.72338655

>  <CHROM.1>
-86.29813293,-76.24389786,173.75039611,175.72539779,-86.31071803,-95.26657028
-108.76617182,-19.40046313,19.63672719,-14.19237381,2.24611348,1.09710805
-0.12810774

>  <Name>
F0422-0197

>  <RI>
2.2387e+07

>  <Rbt.Current_Directory>
/home/adria/Escritorio/rDock_CMTR_LC/2pxcA_model/inputs_sah

>  <Rbt.Executable>
rbdock ($Id: //depot/dev/client3/rdock/2013.1/src/exe/rbdock.cxx#4 $)

>  <Rbt.Library>
libRbt.so (2013.1, Build901 2013/11/27)

>  <Rbt.Parameter_File>
/home/adria/Escritorio/rDock_2013.1_src/data/scripts/dock.prm

>  <Rbt.Receptor>
sah_rdock.prm

>  <SCORE>
-42.2969

>  <SCORE.INTER>
-16.616

>  <SCORE.INTER.CONST>
1

>  <SCORE.INTER.POLAR>
-1.51936

>  <SCORE.INTER.REPUL>
0

>  <SCORE.INTER.ROT>
7

>  <SCORE.INTER.VDW>
-23.8502

>  <SCORE.INTER.norm>
-0.755274

>  <SCORE.INTRA>
-22.0631

>  <SCORE.INTRA.DIHEDRAL>
-5.23924

>  <SCORE.INTRA.DIHEDRAL.0>
14.0204

>  <SCORE.INTRA.POLAR>
0

>  <SCORE.INTRA.POLAR.0>
0

>  <SCORE.INTRA.REPUL>
0

>  <SCORE.INTRA.REPUL.0>
0

>  <SCORE.INTRA.VDW>
-19.4435

>  <SCORE.INTRA.VDW.0>
19.2467

>  <SCORE.INTRA.norm>
-1.00287

>  <SCORE.RESTR>
0

>  <SCORE.RESTR.CAVITY>
0

>  <SCORE.RESTR.norm>
0

>  <SCORE.SYSTEM>
-3.61784

>  <SCORE.SYSTEM.CONST>
0

>  <SCORE.SYSTEM.DIHEDRAL>
8.02752

>  <SCORE.SYSTEM.POLAR>
-4.01985

>  <SCORE.SYSTEM.REPUL>
0.162277

>  <SCORE.SYSTEM.VDW>
5.22449

>  <SCORE.SYSTEM.norm>
-0.164447

>  <SCORE.heavy>
22

>  <SCORE.norm>
-1.92259

$$$$
F0422-0197
  rDOCK(R)          3D
libRbt.so/2013.1/901 2013/11/27
 23 24  0  0  0  0  0  0  0  0999 V2000
  -14.8281   14.8429  -18.9459 C   0  0  0  0  0  0
  -14.5619   15.7499  -17.8590 C   0  0  0  0  0  0
  -15.4427   16.9207  -17.9664 C   0  0  0  0  0  0
  -15.0869   17.8276  -16.8159 C   0  0  0  0  0  0
  -16.0452   19.0479  -16.5574 C   0  0  0  0  0  0
  -17.6268   18.9976  -16.1921 C   0  0  0  0  0  0
  -19.0824   20.3551  -16.0905 S   0  0  0  0  0  0
  -19.4698   20.9389  -14.4110 C   0  0  0  0  0  0
  -19.5566   20.1111  -13.3186 C   0  0  0  0  0  0
  -19.2432   18.7066  -13.4679 C   0  0  0  0  0  0
  -19.0451   17.6048  -13.6204 N   0  0  0  0  0  0
  -20.2063   20.5373  -11.9428 C   0  0  0  0  0  0
  -20.2797   22.0743  -11.8784 C   0  0  0  0  0  0
  -20.6099   22.7320  -13.2013 C   0  0  0  0  0  0
  -21.3593   23.7026  -13.2829 O   0  0  0  0  0  0
  -19.9644   22.2290  -14.3136 N   0  0  0  0  0  0
  -21.5823   19.9213  -11.4341 C   0  0  0  0  0  0
  -22.3874   18.8359  -11.7715 C   0  0  0  0  0  0
  -23.4210   18.7113  -10.7751 C   0  0  0  0  0  0
  -23.2298   19.7287   -9.8832 C   0  0  0  0  0  0
  -23.9095   20.1365   -8.5996 C   0  0  0  0  0  0
  -22.1546   20.4601  -10.3237 O   0  0  0  0  0  0
  -20.1219   22.7462  -15.1717 H   0  0  0  0  0  0
  1  2  1  0  0  0
  2  3  1  0  0  0
  3  4  1  0  0  0
  4  5  1  0  0  0
  5  6  1  0  0  0
  6  7  1  0  0  0
  7  8  1  0  0  0
  8  9  2  0  0  0
  8 16  1  0  0  0
  9 10  1  0  0  0
  9 12  1  0  0  0
 10 11  3  0  0  0
 12 13  1  0  0  0
 12 17  1  0  0  0
 13 14  1  0  0  0
 14 15  2  0  0  0
 14 16  1  0  0  0
 16 23  1  0  0  0
 17 18  2  0  0  0
 17 22  1  0  0  0
 18 19  1  0  0  0
 19 20  2  0  0  0
 20 21  1  0  0  0
 20 22  1  0  0  0
M  END
>  <CHROM.0>
-174.81579184,-71.87482424,-166.80639115,67.40149740,-30.23667088,-177.33764239
-37.14088625,-156.78772116

>  <CHROM.1>
-178.96481177,-170.20143226,60.63423240,-169.07527627,-99.76397512,-42.43850788
14.30631677,-19.44339473,19.59832791,-13.93405143,0.18656076,-0.83152667
2.89530898

>  <Name>
F0422-0197

>  <RI>
2.2387e+07

>  <Rbt.Current_Directory>
/home/adria/Escritorio/rDock_CMTR_LC/2pxcA_model/inputs_sah

>  <Rbt.Executable>
rbdock ($Id: //depot/dev/client3/rdock/2013.1/src/exe/rbdock.cxx#4 $)

>  <Rbt.Library>
libRbt.so (2013.1, Build901 2013/11/27)

>  <Rbt.Parameter_File>
/home/adria/Escritorio/rDock_2013.1_src/data/scripts/dock.prm

>  <Rbt.Receptor>
sah_rdock.prm

>  <SCORE>
-46.8123

>  <SCORE.INTER>
-14.1446

>  <SCORE.INTER.CONST>
1

>  <SCORE.INTER.POLAR>
-0.81676

>  <SCORE.INTER.REPUL>
0

>  <SCORE.INTER.ROT>
7

>  <SCORE.INTER.VDW>
-23.7676

>  <SCORE.INTER.norm>
-0.642935

>  <SCORE.INTRA>
-25.7537

>  <SCORE.INTRA.DIHEDRAL>
-9.8352

>  <SCORE.INTRA.DIHEDRAL.0>
14.0204

>  <SCORE.INTRA.POLAR>
0

>  <SCORE.INTRA.POLAR.0>
0

>  <SCORE.INTRA.REPUL>
0

>  <SCORE.INTRA.REPUL.0>
0

>  <SCORE.INTRA.VDW>
-20.8361

>  <SCORE.INTRA.VDW.0>
19.2467

>  <SCORE.INTRA.norm>
-1.17062

>  <SCORE.RESTR>
0

>  <SCORE.RESTR.CAVITY>
0

>  <SCORE.RESTR.norm>
0

>  <SCORE.SYSTEM>
-6.91401

>  <SCORE.SYSTEM.CONST>
0

>  <SCORE.SYSTEM.DIHEDRAL>
6.94669

>  <SCORE.SYSTEM.POLAR>
-3.94315

>  <SCORE.SYSTEM.REPUL>
0.0364646

>  <SCORE.SYSTEM.VDW>
2.83704

>  <SCORE.SYSTEM.norm>
-0.314273

>  <SCORE.heavy>
22

>  <SCORE.norm>
-2.12783

$$$$
F0422-0197
  rDOCK(R)          3D
libRbt.so/2013.1/901 2013/11/27
 23 24  0  0  0  0  0  0  0  0999 V2000
  -20.4166   24.3520  -11.2070 C   0  0  0  0  0  0
  -20.6810   23.3104  -12.1662 C   0  0  0  0  0  0
  -20.8066   22.0213  -11.4729 C   0  0  0  0  0  0
  -21.0172   20.9812  -12.5436 C   0  0  0  0  0  0
  -21.2213   19.4994  -12.0568 C   0  0  0  0  0  0
  -21.5052   18.1913  -12.9765 C   0  0  0  0  0  0
  -20.4421   17.1646  -14.3136 S   0  0  0  0  0  0
  -19.7787   18.1550  -15.6886 C   0  0  0  0  0  0
  -18.9671   17.6448  -16.6720 C   0  0  0  0  0  0
  -18.6783   16.2273  -16.6868 C   0  0  0  0  0  0
  -18.4246   15.1271  -16.6471 N   0  0  0  0  0  0
  -18.1249   18.5377  -17.6670 C   0  0  0  0  0  0
  -18.7000   19.9664  -17.6672 C   0  0  0  0  0  0
  -19.1729   20.4410  -16.3098 C   0  0  0  0  0  0
  -18.9943   21.5920  -15.9179 O   0  0  0  0  0  0
  -19.8860   19.5297  -15.5562 N   0  0  0  0  0  0
  -16.5368   18.6079  -17.5978 C   0  0  0  0  0  0
  -15.4766   17.7440  -17.8621 C   0  0  0  0  0  0
  -14.2499   18.4968  -17.7900 C   0  0  0  0  0  0
  -14.5954   19.7781  -17.4642 C   0  0  0  0  0  0
  -13.8178   21.0588  -17.2874 C   0  0  0  0  0  0
  -15.9597   19.8064  -17.3127 O   0  0  0  0  0  0
  -20.2788   19.8975  -14.6965 H   0  0  0  0  0  0
  1  2  1  0  0  0
  2  3  1  0  0  0
  3  4  1  0  0  0
  4  5  1  0  0  0
  5  6  1  0  0  0
  6  7  1  0  0  0
  7  8  1  0  0  0
  8  9  2  0  0  0
  8 16  1  0  0  0
  9 10  1  0  0  0
  9 12  1  0  0  0
 10 11  3  0  0  0
 12 13  1  0  0  0
 12 17  1  0  0  0
 13 14  1  0  0  0
 14 15  2  0  0  0
 14 16  1  0  0  0
 16 23  1  0  0  0
 17 18  2  0  0  0
 17 22  1  0  0  0
 18 19  1  0  0  0
 19 20  2  0  0  0
 20 21  1  0  0  0
 20 22  1  0  0  0
M  END
>  <CHROM.0>
178.94336471,63.54044626,71.45007355,59.72119003,-31.26314260,-57.58835426
-156.39041367,-158.07597783

>  <CHROM.1>
-177.44792452,-178.42995194,178.27944113,67.49871687,-55.12145363,176.61057648
69.09554852,-18.65897037,19.42134857,-15.36150446,-2.47797123,-0.64014898
-2.72513286

>  <Name>
F0422-0197

>  <RI>
2.2387e+07

>  <Rbt.Current_Directory>
/home/adria/Escritorio/rDock_CMTR_LC/2pxcA_model/inputs_sah

>  <Rbt.Executable>
rbdock ($Id: //depot/dev/client3/rdock/2013.1/src/exe/rbdock.cxx#4 $)

>  <Rbt.Library>
libRbt.so (2013.1, Build901 2013/11/27)

>  <Rbt.Parameter_File>
/home/adria/Escritorio/rDock_2013.1_src/data/scripts/dock.prm

>  <Rbt.Receptor>
sah_rdock.prm

>  <SCORE>
-47.2445

>  <SCORE.INTER>
-13.689

>  <SCORE.INTER.CONST>
1

>  <SCORE.INTER.POLAR>
-0.619025

>  <SCORE.INTER.REPUL>
0

>  <SCORE.INTER.ROT>
7

>  <SCORE.INTER.VDW>
-23.9843

>  <SCORE.INTER.norm>
-0.622226

>  <SCORE.INTRA>
-26.4913

>  <SCORE.INTRA.DIHEDRAL>
-11.6516

>  <SCORE.INTRA.DIHEDRAL.0>
14.0204

>  <SCORE.INTRA.POLAR>
0

>  <SCORE.INTRA.POLAR.0>
0

>  <SCORE.INTRA.REPUL>
0

>  <SCORE.INTRA.REPUL.0>
0

>  <SCORE.INTRA.VDW>
-20.6655

>  <SCORE.INTRA.VDW.0>
19.2467

>  <SCORE.INTRA.norm>
-1.20415

>  <SCORE.RESTR>
0

>  <SCORE.RESTR.CAVITY>
0

>  <SCORE.RESTR.norm>
0

>  <SCORE.SYSTEM>
-7.06426

>  <SCORE.SYSTEM.CONST>
0

>  <SCORE.SYSTEM.DIHEDRAL>
5.6363

>  <SCORE.SYSTEM.POLAR>
-3.75743

>  <SCORE.SYSTEM.VDW>
2.89284

>  <SCORE.SYSTEM.norm>
-0.321103

>  <SCORE.heavy>
22

>  <SCORE.norm>
-2.14748

$$$$
F0422-0197
  rDOCK(R)          3D
libRbt.so/2013.1/901 2013/11/27
 23 24  0  0  0  0  0  0  0  0999 V2000
  -14.3744   18.2478  -17.8057 C   0  0  0  0  0  0
  -15.0586   19.3452  -17.1712 C   0  0  0  0  0  0
  -16.3999   18.9154  -16.7537 C   0  0  0  0  0  0
  -17.0445   20.1100  -16.0979 C   0  0  0  0  0  0
  -18.4529   19.8773  -15.4373 C   0  0  0  0  0  0
  -19.2808   20.9088  -14.4949 C   0  0  0  0  0  0
  -20.9771   20.7983  -13.4544 S   0  0  0  0  0  0
  -21.3727   22.2799  -12.4746 C   0  0  0  0  0  0
  -21.8485   22.2362  -11.1870 C   0  0  0  0  0  0
  -21.9694   20.9582  -10.5199 C   0  0  0  0  0  0
  -22.1047   19.9450  -10.0386 N   0  0  0  0  0  0
  -22.5019   23.4714  -10.4496 C   0  0  0  0  0  0
  -22.1030   24.7634  -11.1869 C   0  0  0  0  0  0
  -22.0440   24.6209  -12.6928 C   0  0  0  0  0  0
  -22.4393   25.5030  -13.4517 O   0  0  0  0  0  0
  -21.4514   23.4712  -13.1768 N   0  0  0  0  0  0
  -24.0535   23.5202  -10.1008 C   0  0  0  0  0  0
  -24.8254   23.5879   -8.9433 C   0  0  0  0  0  0
  -26.1972   23.8084   -9.3257 C   0  0  0  0  0  0
  -26.2220   23.8444  -10.6914 C   0  0  0  0  0  0
  -27.3055   24.0896  -11.7122 C   0  0  0  0  0  0
  -24.9388   23.6263  -11.1282 O   0  0  0  0  0  0
  -21.3316   23.4412  -14.1834 H   0  0  0  0  0  0
  1  2  1  0  0  0
  2  3  1  0  0  0
  3  4  1  0  0  0
  4  5  1  0  0  0
  5  6  1  0  0  0
  6  7  1  0  0  0
  7  8  1  0  0  0
  8  9  2  0  0  0
  8 16  1  0  0  0
  9 10  1  0  0  0
  9 12  1  0  0  0
 10 11  3  0  0  0
 12 13  1  0  0  0
 12 17  1  0  0  0
 13 14  1  0  0  0
 14 15  2  0  0  0
 14 16  1  0  0  0
 16 23  1  0  0  0
 17 18  2  0  0  0
 17 22  1  0  0  0
 18 19  1  0  0  0
 19 20  2  0  0  0
 20 21  1  0  0  0
 20 22  1  0  0  0
M  END
>  <CHROM.0>
-178.72508525,-71.50700362,-166.40194749,64.60861907,-30.78246674,61.71268313
82.50560571,-162.29744733

>  <CHROM.1>
179.76857632,-174.53908811,170.88674280,-174.62437193,176.29068131,-137.06111666
117.65409973,-21.40880327,22.08615107,-12.79053374,0.02623293,-0.71818044
2.53963284

>  <Name>
F0422-0197

>  <RI>
2.2387e+07

>  <Rbt.Current_Directory>
/home/adria/Escritorio/rDock_CMTR_LC/2pxcA_model/inputs_sah

>  <Rbt.Executable>
rbdock ($Id: //depot/dev/client3/rdock/2013.1/src/exe/rbdock.cxx#4 $)

>  <Rbt.Library>
libRbt.so (2013.1, Build901 2013/11/27)

>  <Rbt.Parameter_File>
/home/adria/Escritorio/rDock_2013.1_src/data/scripts/dock.prm

>  <Rbt.Receptor>
sah_rdock.prm

>  <SCORE>
-46.1533

>  <SCORE.INTER>
-12.7442

>  <SCORE.INTER.CONST>
1

>  <SCORE.INTER.POLAR>
-0.848442

>  <SCORE.INTER.REPUL>
0

>  <SCORE.INTER.ROT>
7

>  <SCORE.INTER.VDW>
-22.2595

>  <SCORE.INTER.norm>
-0.579282

>  <SCORE.INTRA>
-26.4283

>  <SCORE.INTRA.DIHEDRAL>
-10.9305

>  <SCORE.INTRA.DIHEDRAL.0>
14.0204

>  <SCORE.INTRA.POLAR>
0

>  <SCORE.INTRA.POLAR.0>
0

>  <SCORE.INTRA.REPUL>
0

>  <SCORE.INTRA.REPUL.0>
0

>  <SCORE.INTRA.VDW>
-20.9631

>  <SCORE.INTRA.VDW.0>
19.2467

>  <SCORE.INTRA.norm>
-1.20129

>  <SCORE.RESTR>
0

>  <SCORE.RESTR.CAVITY>
0

>  <SCORE.RESTR.norm>
0

>  <SCORE.SYSTEM>
-6.98082

>  <SCORE.SYSTEM.CONST>
0

>  <SCORE.SYSTEM.DIHEDRAL>
6.19893

>  <SCORE.SYSTEM.POLAR>
-3.88967

>  <SCORE.SYSTEM.REPUL>
0.0357611

>  <SCORE.SYSTEM.VDW>
2.96578

>  <SCORE.SYSTEM.norm>
-0.31731

>  <SCORE.heavy>
22

>  <SCORE.norm>
-2.09788

$$$$
F0422-0197
  rDOCK(R)          3D
libRbt.so/2013.1/901 2013/11/27
 23 24  0  0  0  0  0  0  0  0999 V2000
  -18.7374   25.3336  -10.0346 C   0  0  0  0  0  0
  -20.1424   25.5564  -10.2609 C   0  0  0  0  0  0
  -20.7951   24.2853  -10.6021 C   0  0  0  0  0  0
  -20.6008   24.0919  -12.0845 C   0  0  0  0  0  0
  -21.2086   22.7831  -12.7106 C   0  0  0  0  0  0
  -20.7462   21.2515  -12.4312 C   0  0  0  0  0  0
  -19.1332   20.1728  -12.8858 S   0  0  0  0  0  0
  -19.0250   19.6525  -14.6263 C   0  0  0  0  0  0
  -19.3131   18.3817  -15.0602 C   0  0  0  0  0  0
  -19.8146   17.4077  -14.1154 C   0  0  0  0  0  0
  -20.1546   16.6501  -13.3493 N   0  0  0  0  0  0
  -18.9131   17.8282  -16.4850 C   0  0  0  0  0  0
  -18.6025   19.0161  -17.4148 C   0  0  0  0  0  0
  -17.8915   20.1647  -16.7314 C   0  0  0  0  0  0
  -16.9924   20.7990  -17.2786 O   0  0  0  0  0  0
  -18.3568   20.5153  -15.4793 N   0  0  0  0  0  0
  -17.7998   16.7069  -16.6713 C   0  0  0  0  0  0
  -17.7752   15.3575  -17.0160 C   0  0  0  0  0  0
  -16.4022   14.9635  -17.2065 C   0  0  0  0  0  0
  -15.6389   16.0679  -16.9516 C   0  0  0  0  0  0
  -14.1594   16.3554  -17.0184 C   0  0  0  0  0  0
  -16.4940   17.0802  -16.5926 O   0  0  0  0  0  0
  -17.9353   21.3480  -15.0825 H   0  0  0  0  0  0
  1  2  1  0  0  0
  2  3  1  0  0  0
  3  4  1  0  0  0
  4  5  1  0  0  0
  5  6  1  0  0  0
  6  7  1  0  0  0
  7  8  1  0  0  0
  8  9  2  0  0  0
  8 16  1  0  0  0
  9 10  1  0  0  0
  9 12  1  0  0  0
 10 11  3  0  0  0
 12 13  1  0  0  0
 12 17  1  0  0  0
 13 14  1  0  0  0
 14 15  2  0  0  0
 14 16  1  0  0  0
 16 23  1  0  0  0
 17 18  2  0  0  0
 17 22  1  0  0  0
 18 19  1  0  0  0
 19 20  2  0  0  0
 20 21  1  0  0  0
 20 22  1  0  0  0
M  END
>  <CHROM.0>
-178.93629120,69.57592570,73.85736285,-150.99276147,167.84908033,179.95571077
83.25523533,-162.72913722

>  <CHROM.1>
-84.54978315,179.72491976,-66.51593124,-69.66902610,-74.43992110,-103.00004575
108.28369859,-18.59119271,19.69556885,-14.54280695,-2.04564851,-0.73545187
-2.82285166

>  <Name>
F0422-0197

>  <RI>
2.2387e+07

>  <Rbt.Current_Directory>
/home/adria/Escritorio/rDock_CMTR_LC/2pxcA_model/inputs_sah

>  <Rbt.Executable>
rbdock ($Id: //depot/dev/client3/rdock/2013.1/src/exe/rbdock.cxx#4 $)

>  <Rbt.Library>
libRbt.so (2013.1, Build901 2013/11/27)

>  <Rbt.Parameter_File>
/home/adria/Escritorio/rDock_2013.1_src/data/scripts/dock.prm

>  <Rbt.Receptor>
sah_rdock.prm

>  <SCORE>
-38.3896

>  <SCORE.INTER>
-16.6921

>  <SCORE.INTER.CONST>
1

>  <SCORE.INTER.POLAR>
-1.671

>  <SCORE.INTER.REPUL>
0

>  <SCORE.INTER.ROT>
7

>  <SCORE.INTER.VDW>
-23.4107

>  <SCORE.INTER.norm>
-0.75873

>  <SCORE.INTRA>
-23.2356

>  <SCORE.INTRA.DIHEDRAL>
-6.61139

>  <SCORE.INTRA.DIHEDRAL.0>
14.0204

>  <SCORE.INTRA.POLAR>
0

>  <SCORE.INTRA.POLAR.0>
0

>  <SCORE.INTRA.REPUL>
0

>  <SCORE.INTRA.REPUL.0>
0

>  <SCORE.INTRA.VDW>
-19.9299

>  <SCORE.INTRA.VDW.0>
19.2467

>  <SCORE.INTRA.norm>
-1.05616

>  <SCORE.RESTR>
0

>  <SCORE.RESTR.CAVITY>
0

>  <SCORE.RESTR.norm>
0

>  <SCORE.SYSTEM>
1.53805

>  <SCORE.SYSTEM.CONST>
0

>  <SCORE.SYSTEM.DIHEDRAL>
6.62009

>  <SCORE.SYSTEM.POLAR>
-3.62511

>  <SCORE.SYSTEM.VDW>
10.5534

>  <SCORE.SYSTEM.norm>
0.0699114

>  <SCORE.heavy>
22

>  <SCORE.norm>
-1.74498

$$$$
F0422-0197
  rDOCK(R)          3D
libRbt.so/2013.1/901 2013/11/27
 23 24  0  0  0  0  0  0  0  0999 V2000
  -22.3688   20.0214  -10.4581 C   0  0  0  0  0  0
  -22.1670   18.7449  -11.0942 C   0  0  0  0  0  0
  -21.3461   18.9186  -12.3000 C   0  0  0  0  0  0
  -21.3027   17.5749  -12.9822 C   0  0  0  0  0  0
  -20.4631   17.4847  -14.3094 C   0  0  0  0  0  0
  -18.8530   17.6265  -14.4674 C   0  0  0  0  0  0
  -17.6321   19.0660  -15.1072 S   0  0  0  0  0  0
  -16.6364   18.6331  -16.5676 C   0  0  0  0  0  0
  -16.9967   17.6678  -17.4756 C   0  0  0  0  0  0
  -18.2742   17.0039  -17.3336 C   0  0  0  0  0  0
  -19.2526   16.4625  -17.1719 N   0  0  0  0  0  0
  -16.0080   17.0543  -18.5445 C   0  0  0  0  0  0
  -14.8002   17.9958  -18.7081 C   0  0  0  0  0  0
  -14.3440   18.6435  -17.4181 C   0  0  0  0  0  0
  -13.1558   18.8035  -17.1482 O   0  0  0  0  0  0
  -15.3385   19.1165  -16.5848 N   0  0  0  0  0  0
  -15.4965   15.5504  -18.4538 C   0  0  0  0  0  0
  -15.4262   14.5666  -17.4703 C   0  0  0  0  0  0
  -15.0336   13.3287  -18.0949 C   0  0  0  0  0  0
  -14.8556   13.5991  -19.4225 C   0  0  0  0  0  0
  -14.5043   12.7571  -20.6239 C   0  0  0  0  0  0
  -15.0954   14.9391  -19.6011 O   0  0  0  0  0  0
  -15.0110   19.6346  -15.7768 H   0  0  0  0  0  0
  1  2  1  0  0  0
  2  3  1  0  0  0
  3  4  1  0  0  0
  4  5  1  0  0  0
  5  6  1  0  0  0
  6  7  1  0  0  0
  7  8  1  0  0  0
  8  9  2  0  0  0
  8 16  1  0  0  0
  9 10  1  0  0  0
  9 12  1  0  0  0
 10 11  3  0  0  0
 12 13  1  0  0  0
 12 17  1  0  0  0
 13 14  1  0  0  0
 14 15  2  0  0  0
 14 16  1  0  0  0
 16 23  1  0  0  0
 17 18  2  0  0  0
 17 22  1  0  0  0
 18 19  1  0  0  0
 19 20  2  0  0  0
 20 21  1  0  0  0
 20 22  1  0  0  0
M  END
>  <CHROM.0>
177.76864440,-67.16560040,72.99889543,65.35952918,-30.81043910,-163.50354726
-159.30529730,-161.77959191

>  <CHROM.1>
-174.17505968,-179.39306555,67.06889218,-103.36947853,-118.09776943,24.04680587
-18.34145694,-17.28715075,17.21331270,-16.29956681,2.45195708,0.57617790
0.49047992

>  <Name>
F0422-0197

>  <RI>
2.2387e+07

>  <Rbt.Current_Directory>
/home/adria/Escritorio/rDock_CMTR_LC/2pxcA_model/inputs_sah

>  <Rbt.Executable>
rbdock ($Id: //depot/dev/client3/rdock/2013.1/src/exe/rbdock.cxx#4 $)

>  <Rbt.Library>
libRbt.so (2013.1, Build901 2013/11/27)

>  <Rbt.Parameter_File>
/home/adria/Escritorio/rDock_2013.1_src/data/scripts/dock.prm

>  <Rbt.Receptor>
sah_rdock.prm

>  <SCORE>
-43.2458

>  <SCORE.INTER>
-13.0996

>  <SCORE.INTER.CONST>
1

>  <SCORE.INTER.POLAR>
-1.48519

>  <SCORE.INTER.REPUL>
0

>  <SCORE.INTER.ROT>
7

>  <SCORE.INTER.VDW>
-20.45

>  <SCORE.INTER.norm>
-0.595438

>  <SCORE.INTRA>
-23.2336

>  <SCORE.INTRA.DIHEDRAL>
-4.90326

>  <SCORE.INTRA.DIHEDRAL.0>
14.0204

>  <SCORE.INTRA.POLAR>
0

>  <SCORE.INTRA.POLAR.0>
0

>  <SCORE.INTRA.REPUL>
0

>  <SCORE.INTRA.REPUL.0>
0

>  <SCORE.INTRA.VDW>
-20.7819

>  <SCORE.INTRA.VDW.0>
19.2467

>  <SCORE.INTRA.norm>
-1.05607

>  <SCORE.RESTR>
0

>  <SCORE.RESTR.CAVITY>
0

>  <SCORE.RESTR.norm>
0

>  <SCORE.SYSTEM>
-6.91263

>  <SCORE.SYSTEM.CONST>
0

>  <SCORE.SYSTEM.DIHEDRAL>
6.32225

>  <SCORE.SYSTEM.POLAR>
-3.93073

>  <SCORE.SYSTEM.REPUL>
0.0264976

>  <SCORE.SYSTEM.VDW>
3.15823

>  <SCORE.SYSTEM.norm>
-0.31421

>  <SCORE.heavy>
22

>  <SCORE.norm>
-1.96572

$$$$
F0422-0197
  rDOCK(R)          3D
libRbt.so/2013.1/901 2013/11/27
 23 24  0  0  0  0  0  0  0  0999 V2000
  -18.4429   15.8215  -16.9789 C   0  0  0  0  0  0
  -19.2737   16.8488  -16.4048 C   0  0  0  0  0  0
  -18.5301   17.5541  -15.3524 C   0  0  0  0  0  0
  -19.4638   18.6012  -14.8007 C   0  0  0  0  0  0
  -18.8744   19.5656  -13.7067 C   0  0  0  0  0  0
  -19.6644   20.7232  -12.8859 C   0  0  0  0  0  0
  -20.5565   22.4329  -13.3890 S   0  0  0  0  0  0
  -21.1076   23.4514  -11.9851 C   0  0  0  0  0  0
  -21.8023   22.9537  -10.9100 C   0  0  0  0  0  0
  -22.0474   21.5306  -10.8229 C   0  0  0  0  0  0
  -22.2723   20.4236  -10.8032 N   0  0  0  0  0  0
  -22.5663   23.8575   -9.8632 C   0  0  0  0  0  0
  -22.0352   25.2996   -9.9644 C   0  0  0  0  0  0
  -21.7138   25.7407  -11.3764 C   0  0  0  0  0  0
  -21.9634   26.8731  -11.7833 O   0  0  0  0  0  0
  -21.0535   24.8231  -12.1697 N   0  0  0  0  0  0
  -24.1547   23.8850   -9.7744 C   0  0  0  0  0  0
  -25.1083   23.8876   -8.7591 C   0  0  0  0  0  0
  -26.4000   24.1272   -9.3511 C   0  0  0  0  0  0
  -26.1988   24.2386  -10.6981 C   0  0  0  0  0  0
  -27.1009   24.5386  -11.8695 C   0  0  0  0  0  0
  -24.8588   24.0467  -10.9272 O   0  0  0  0  0  0
  -20.7591   25.1720  -13.0753 H   0  0  0  0  0  0
  1  2  1  0  0  0
  2  3  1  0  0  0
  3  4  1  0  0  0
  4  5  1  0  0  0
  5  6  1  0  0  0
  6  7  1  0  0  0
  7  8  1  0  0  0
  8  9  2  0  0  0
  8 16  1  0  0  0
  9 10  1  0  0  0
  9 12  1  0  0  0
 10 11  3  0  0  0
 12 13  1  0  0  0
 12 17  1  0  0  0
 13 14  1  0  0  0
 14 15  2  0  0  0
 14 16  1  0  0  0
 16 23  1  0  0  0
 17 18  2  0  0  0
 17 22  1  0  0  0
 18 19  1  0  0  0
 19 20  2  0  0  0
 20 21  1  0  0  0
 20 22  1  0  0  0
M  END
>  <CHROM.0>
-62.97017436,64.64108214,-165.62973005,63.74808553,-31.16671910,-57.93955476
81.87345552,-162.33239123

>  <CHROM.1>
-179.72962597,-176.32952849,-176.41096748,-64.64575177,-172.41689060,-46.95516336
137.53800496,-21.93176175,22.30343165,-12.18099489,0.94746302,-0.37746586
-2.77068485

>  <Name>
F0422-0197

>  <RI>
2.2387e+07

>  <Rbt.Current_Directory>
/home/adria/Escritorio/rDock_CMTR_LC/2pxcA_model/inputs_sah

>  <Rbt.Executable>
rbdock ($Id: //depot/dev/client3/rdock/2013.1/src/exe/rbdock.cxx#4 $)

>  <Rbt.Library>
libRbt.so (2013.1, Build901 2013/11/27)

>  <Rbt.Parameter_File>
/home/adria/Escritorio/rDock_2013.1_src/data/scripts/dock.prm

>  <Rbt.Receptor>
sah_rdock.prm

>  <SCORE>
-46.9718

>  <SCORE.INTER>
-12.8579

>  <SCORE.INTER.CONST>
1

>  <SCORE.INTER.POLAR>
-1.52724

>  <SCORE.INTER.REPUL>
0

>  <SCORE.INTER.ROT>
7

>  <SCORE.INTER.VDW>
-20.0653

>  <SCORE.INTER.norm>
-0.584451

>  <SCORE.INTRA>
-27.1267

>  <SCORE.INTRA.DIHEDRAL>
-11.797

>  <SCORE.INTRA.DIHEDRAL.0>
14.0204

>  <SCORE.INTRA.POLAR>
0

>  <SCORE.INTRA.POLAR.0>
0

>  <SCORE.INTRA.REPUL>
0

>  <SCORE.INTRA.REPUL.0>
0

>  <SCORE.INTRA.VDW>
-21.2282

>  <SCORE.INTRA.VDW.0>
19.2467

>  <SCORE.INTRA.norm>
-1.23303

>  <SCORE.RESTR>
0

>  <SCORE.RESTR.CAVITY>
0

>  <SCORE.RESTR.norm>
0

>  <SCORE.SYSTEM>
-6.98714

>  <SCORE.SYSTEM.CONST>
0

>  <SCORE.SYSTEM.DIHEDRAL>
5.59426

>  <SCORE.SYSTEM.POLAR>
-3.60132

>  <SCORE.SYSTEM.VDW>
2.46022

>  <SCORE.SYSTEM.norm>
-0.317597

>  <SCORE.heavy>
22

>  <SCORE.norm>
-2.13508

$$$$
F0422-0197
  rDOCK(R)          3D
libRbt.so/2013.1/901 2013/11/27
 23 24  0  0  0  0  0  0  0  0999 V2000
  -24.3084   23.8104   -8.9750 C   0  0  0  0  0  0
  -23.7590   24.4949  -10.1172 C   0  0  0  0  0  0
  -22.5681   25.2537   -9.7120 C   0  0  0  0  0  0
  -21.8782   25.6741  -10.9848 C   0  0  0  0  0  0
  -21.3581   24.5206  -11.9192 C   0  0  0  0  0  0
  -20.3975   23.2775  -11.5073 C   0  0  0  0  0  0
  -20.1834   21.4031  -12.1498 S   0  0  0  0  0  0
  -21.6856   20.3812  -12.0455 C   0  0  0  0  0  0
  -21.7054   19.0299  -12.2897 C   0  0  0  0  0  0
  -20.4626   18.3415  -12.5627 C   0  0  0  0  0  0
  -19.4871   17.8358  -12.8253 N   0  0  0  0  0  0
  -23.0284   18.1995  -12.5276 C   0  0  0  0  0  0
  -24.2283   19.0058  -11.9965 C   0  0  0  0  0  0
  -24.1209   20.4976  -12.2304 C   0  0  0  0  0  0
  -25.0885   21.1827  -12.5539 O   0  0  0  0  0  0
  -22.8869   21.0685  -11.9889 N   0  0  0  0  0  0
  -23.3932   17.5847  -13.9491 C   0  0  0  0  0  0
  -24.1980   16.5523  -14.4249 C   0  0  0  0  0  0
  -24.2486   16.6428  -15.8623 C   0  0  0  0  0  0
  -23.4620   17.7027  -16.2158 C   0  0  0  0  0  0
  -23.1287   18.3664  -17.5289 C   0  0  0  0  0  0
  -22.9298   18.2186  -15.0600 O   0  0  0  0  0  0
  -22.8619   22.0802  -12.0542 H   0  0  0  0  0  0
  1  2  1  0  0  0
  2  3  1  0  0  0
  3  4  1  0  0  0
  4  5  1  0  0  0
  5  6  1  0  0  0
  6  7  1  0  0  0
  7  8  1  0  0  0
  8  9  2  0  0  0
  8 16  1  0  0  0
  9 10  1  0  0  0
  9 12  1  0  0  0
 10 11  3  0  0  0
 12 13  1  0  0  0
 12 17  1  0  0  0
 13 14  1  0  0  0
 14 15  2  0  0  0
 14 16  1  0  0  0
 16 23  1  0  0  0
 17 18  2  0  0  0
 17 22  1  0  0  0
 18 19  1  0  0  0
 19 20  2  0  0  0
 20 21  1  0  0  0
 20 22  1  0  0  0
M  END
>  <CHROM.0>
-62.27981745,-73.16630702,111.75779203,63.09238925,-29.88168975,-55.90846115
-36.84596276,-160.27237828

>  <CHROM.1>
167.36129343,-62.11911068,-52.91135022,150.12513291,-58.33622344,-172.11091478
157.71680835,-22.53950105,20.55584370,-12.65071399,1.47270241,-0.02663314
0.58341259

>  <Name>
F0422-0197

>  <RI>
2.2387e+07

>  <Rbt.Current_Directory>
/home/adria/Escritorio/rDock_CMTR_LC/2pxcA_model/inputs_sah

>  <Rbt.Executable>
rbdock ($Id: //depot/dev/client3/rdock/2013.1/src/exe/rbdock.cxx#4 $)

>  <Rbt.Library>
libRbt.so (2013.1, Build901 2013/11/27)

>  <Rbt.Parameter_File>
/home/adria/Escritorio/rDock_2013.1_src/data/scripts/dock.prm

>  <Rbt.Receptor>
sah_rdock.prm

>  <SCORE>
-40.4729

>  <SCORE.INTER>
-7.62121

>  <SCORE.INTER.CONST>
1

>  <SCORE.INTER.POLAR>
-0.75095

>  <SCORE.INTER.REPUL>
0

>  <SCORE.INTER.ROT>
7

>  <SCORE.INTER.VDW>
-17.468

>  <SCORE.INTER.norm>
-0.346419

>  <SCORE.INTRA>
-25.4235

>  <SCORE.INTRA.DIHEDRAL>
-8.9433

>  <SCORE.INTRA.DIHEDRAL.0>
14.0204

>  <SCORE.INTRA.POLAR>
0

>  <SCORE.INTRA.POLAR.0>
0

>  <SCORE.INTRA.REPUL>
0

>  <SCORE.INTRA.REPUL.0>
0

>  <SCORE.INTRA.VDW>
-20.9518

>  <SCORE.INTRA.VDW.0>
19.2467

>  <SCORE.INTRA.norm>
-1.15561

>  <SCORE.RESTR>
0

>  <SCORE.RESTR.CAVITY>
0

>  <SCORE.RESTR.norm>
0

>  <SCORE.SYSTEM>
-7.42824

>  <SCORE.SYSTEM.CONST>
0

>  <SCORE.SYSTEM.DIHEDRAL>
9.70898

>  <SCORE.SYSTEM.POLAR>
-4.65036

>  <SCORE.SYSTEM.REPUL>
0.0388312

>  <SCORE.SYSTEM.VDW>
3.33434

>  <SCORE.SYSTEM.norm>
-0.337647

>  <SCORE.heavy>
22

>  <SCORE.norm>
-1.83968

$$$$
F0422-0197
  rDOCK(R)          3D
libRbt.so/2013.1/901 2013/11/27
 23 24  0  0  0  0  0  0  0  0999 V2000
  -20.9967   25.3860   -9.4104 C   0  0  0  0  0  0
  -21.4855   24.6178  -10.5267 C   0  0  0  0  0  0
  -20.3831   24.3451  -11.4586 C   0  0  0  0  0  0
  -20.9917   23.6361  -12.6416 C   0  0  0  0  0  0
  -21.4149   22.1368  -12.4240 C   0  0  0  0  0  0
  -20.4514   20.8881  -12.0367 C   0  0  0  0  0  0
  -18.8008   20.0981  -12.8262 S   0  0  0  0  0  0
  -18.9376   19.6325  -14.5801 C   0  0  0  0  0  0
  -19.4043   18.4146  -15.0102 C   0  0  0  0  0  0
  -19.9012   17.4640  -14.0394 C   0  0  0  0  0  0
  -20.2348   16.7183  -13.2590 N   0  0  0  0  0  0
  -19.2220   17.8745  -16.4838 C   0  0  0  0  0  0
  -18.8894   19.0567  -17.4131 C   0  0  0  0  0  0
  -17.9907   20.1007  -16.7853 C   0  0  0  0  0  0
  -17.0938   20.6584  -17.4137 O   0  0  0  0  0  0
  -18.2778   20.4521  -15.4810 N   0  0  0  0  0  0
  -18.2609   16.6519  -16.8203 C   0  0  0  0  0  0
  -18.4172   15.3129  -17.1706 C   0  0  0  0  0  0
  -17.1277   14.7884  -17.5429 C   0  0  0  0  0  0
  -16.2306   15.8073  -17.3869 C   0  0  0  0  0  0
  -14.7515   15.9483  -17.6478 C   0  0  0  0  0  0
  -16.9253   16.8929  -16.9137 O   0  0  0  0  0  0
  -17.7297   21.2222  -15.1135 H   0  0  0  0  0  0
  1  2  1  0  0  0
  2  3  1  0  0  0
  3  4  1  0  0  0
  4  5  1  0  0  0
  5  6  1  0  0  0
  6  7  1  0  0  0
  7  8  1  0  0  0
  8  9  2  0  0  0
  8 16  1  0  0  0
  9 10  1  0  0  0
  9 12  1  0  0  0
 10 11  3  0  0  0
 12 13  1  0  0  0
 12 17  1  0  0  0
 13 14  1  0  0  0
 14 15  2  0  0  0
 14 16  1  0  0  0
 16 23  1  0  0  0
 17 18  2  0  0  0
 17 22  1  0  0  0
 18 19  1  0  0  0
 19 20  2  0  0  0
 20 21  1  0  0  0
 20 22  1  0  0  0
M  END
>  <CHROM.0>
-61.33256843,-73.43506121,-165.77111815,-64.43099797,167.42138238,62.49626440
83.22850826,-162.83290407

>  <CHROM.1>
-175.72985064,-73.80488220,-61.71454336,-54.98499620,-54.74159480,-87.02312211
106.56296936,-18.90089389,19.53437294,-14.63767921,-2.23233446,-0.93863176
-3.01266222

>  <Name>
F0422-0197

>  <RI>
2.2387e+07

>  <Rbt.Current_Directory>
/home/adria/Escritorio/rDock_CMTR_LC/2pxcA_model/inputs_sah

>  <Rbt.Executable>
rbdock ($Id: //depot/dev/client3/rdock/2013.1/src/exe/rbdock.cxx#4 $)

>  <Rbt.Library>
libRbt.so (2013.1, Build901 2013/11/27)

>  <Rbt.Parameter_File>
/home/adria/Escritorio/rDock_2013.1_src/data/scripts/dock.prm

>  <Rbt.Receptor>
sah_rdock.prm

>  <SCORE>
-42.1901

>  <SCORE.INTER>
-14.7907

>  <SCORE.INTER.CONST>
1

>  <SCORE.INTER.POLAR>
-1.64473

>  <SCORE.INTER.REPUL>
0

>  <SCORE.INTER.ROT>
7

>  <SCORE.INTER.VDW>
-21.5986

>  <SCORE.INTER.norm>
-0.672303

>  <SCORE.INTRA>
-25.135

>  <SCORE.INTRA.DIHEDRAL>
-8.66225

>  <SCORE.INTRA.DIHEDRAL.0>
14.0204

>  <SCORE.INTRA.POLAR>
0

>  <SCORE.INTRA.POLAR.0>
0

>  <SCORE.INTRA.REPUL>
0

>  <SCORE.INTRA.REPUL.0>
0

>  <SCORE.INTRA.VDW>
-20.8038

>  <SCORE.INTRA.VDW.0>
19.2467

>  <SCORE.INTRA.norm>
-1.1425

>  <SCORE.RESTR>
0

>  <SCORE.RESTR.CAVITY>
0

>  <SCORE.RESTR.norm>
0

>  <SCORE.SYSTEM>
-2.26448

>  <SCORE.SYSTEM.CONST>
0

>  <SCORE.SYSTEM.DIHEDRAL>
3.79855

>  <SCORE.SYSTEM.POLAR>
-3.89493

>  <SCORE.SYSTEM.REPUL>
0.0393032

>  <SCORE.SYSTEM.VDW>
8.88249

>  <SCORE.SYSTEM.norm>
-0.102931

>  <SCORE.heavy>
22

>  <SCORE.norm>
-1.91773

$$$$
F0422-0197
  rDOCK(R)          3D
libRbt.so/2013.1/901 2013/11/27
 23 24  0  0  0  0  0  0  0  0999 V2000
  -16.5231   12.1398  -15.3156 C   0  0  0  0  0  0
  -15.8507   12.3377  -16.5740 C   0  0  0  0  0  0
  -16.7292   13.0745  -17.4924 C   0  0  0  0  0  0
  -15.9835   13.1844  -18.7980 C   0  0  0  0  0  0
  -14.6800   14.0648  -18.7937 C   0  0  0  0  0  0
  -14.5730   15.6642  -18.5324 C   0  0  0  0  0  0
  -14.9567   16.8565  -16.9822 S   0  0  0  0  0  0
  -16.7070   16.9343  -16.4903 C   0  0  0  0  0  0
  -17.4137   18.1062  -16.3743 C   0  0  0  0  0  0
  -16.7800   19.3542  -16.7402 C   0  0  0  0  0  0
  -16.2473   20.3208  -16.9816 N   0  0  0  0  0  0
  -18.8086   18.2220  -15.6412 C   0  0  0  0  0  0
  -19.4262   16.8168  -15.5148 C   0  0  0  0  0  0
  -18.4183   15.7233  -15.2319 C   0  0  0  0  0  0
  -18.6528   14.7990  -14.4567 O   0  0  0  0  0  0
  -17.2398   15.7756  -15.9498 N   0  0  0  0  0  0
  -18.9737   18.9972  -14.2616 C   0  0  0  0  0  0
  -18.2751   19.9833  -13.5690 C   0  0  0  0  0  0
  -19.0750   20.4007  -12.4453 C   0  0  0  0  0  0
  -20.2143   19.6470  -12.4741 C   0  0  0  0  0  0
  -21.4686   19.6140  -11.6365 C   0  0  0  0  0  0
  -20.1083   18.7888  -13.5406 O   0  0  0  0  0  0
  -16.6226   14.9814  -15.8199 H   0  0  0  0  0  0
  1  2  1  0  0  0
  2  3  1  0  0  0
  3  4  1  0  0  0
  4  5  1  0  0  0
  5  6  1  0  0  0
  6  7  1  0  0  0
  7  8  1  0  0  0
  8  9  2  0  0  0
  8 16  1  0  0  0
  9 10  1  0  0  0
  9 12  1  0  0  0
 10 11  3  0  0  0
 12 13  1  0  0  0
 12 17  1  0  0  0
 13 14  1  0  0  0
 14 15  2  0  0  0
 14 16  1  0  0  0
 16 23  1  0  0  0
 17 18  2  0  0  0
 17 22  1  0  0  0
 18 19  1  0  0  0
 19 20  2  0  0  0
 20 21  1  0  0  0
 20 22  1  0  0  0
M  END
>  <CHROM.0>
179.90323677,66.83793758,-9.05535471,-62.50968182,168.34393861,-178.05947053
-157.43973434,-160.71262115

>  <CHROM.1>
-177.44307293,-66.42014079,-64.43589831,64.06400264,-65.00290217,-125.82516290
21.69522152,-17.44500732,16.76806379,-15.70094939,0.79814879,-0.77651652
-3.08514268

>  <Name>
F0422-0197

>  <RI>
2.2387e+07

>  <Rbt.Current_Directory>
/home/adria/Escritorio/rDock_CMTR_LC/2pxcA_model/inputs_sah

>  <Rbt.Executable>
rbdock ($Id: //depot/dev/client3/rdock/2013.1/src/exe/rbdock.cxx#4 $)

>  <Rbt.Library>
libRbt.so (2013.1, Build901 2013/11/27)

>  <Rbt.Parameter_File>
/home/adria/Escritorio/rDock_2013.1_src/data/scripts/dock.prm

>  <Rbt.Receptor>
sah_rdock.prm

>  <SCORE>
-39.5501

>  <SCORE.INTER>
-11.624

>  <SCORE.INTER.CONST>
1

>  <SCORE.INTER.POLAR>
-0.835152

>  <SCORE.INTER.REPUL>
0

>  <SCORE.INTER.ROT>
7

>  <SCORE.INTER.VDW>
-21.1845

>  <SCORE.INTER.norm>
-0.528362

>  <SCORE.INTRA>
-26.2922

>  <SCORE.INTRA.DIHEDRAL>
-10.2026

>  <SCORE.INTRA.DIHEDRAL.0>
14.0204

>  <SCORE.INTRA.POLAR>
0

>  <SCORE.INTRA.POLAR.0>
0

>  <SCORE.INTRA.REPUL>
0

>  <SCORE.INTRA.REPUL.0>
0

>  <SCORE.INTRA.VDW>
-21.1909

>  <SCORE.INTRA.VDW.0>
19.2467

>  <SCORE.INTRA.norm>
-1.1951

>  <SCORE.RESTR>
0

>  <SCORE.RESTR.CAVITY>
0

>  <SCORE.RESTR.norm>
0

>  <SCORE.SYSTEM>
-1.63393

>  <SCORE.SYSTEM.CONST>
0

>  <SCORE.SYSTEM.DIHEDRAL>
5.96045

>  <SCORE.SYSTEM.POLAR>
-4.21646

>  <SCORE.SYSTEM.VDW>
9.72182

>  <SCORE.SYSTEM.norm>
-0.0742697

>  <SCORE.heavy>
22

>  <SCORE.norm>
-1.79773

$$$$
F0422-0197
  rDOCK(R)          3D
libRbt.so/2013.1/901 2013/11/27
 23 24  0  0  0  0  0  0  0  0999 V2000
  -16.7918   15.4743  -16.6490 C   0  0  0  0  0  0
  -17.1482   16.7065  -17.3045 C   0  0  0  0  0  0
  -16.6771   17.8451  -16.5048 C   0  0  0  0  0  0
  -17.0990   19.0886  -17.2454 C   0  0  0  0  0  0
  -18.6252   19.4641  -17.1811 C   0  0  0  0  0  0
  -19.4801   19.8888  -15.8672 C   0  0  0  0  0  0
  -19.3919   21.3990  -14.5696 S   0  0  0  0  0  0
  -20.4378   21.2026  -13.0934 C   0  0  0  0  0  0
  -20.5864   20.0159  -12.4182 C   0  0  0  0  0  0
  -19.8137   18.8648  -12.8314 C   0  0  0  0  0  0
  -19.2395   17.9664  -13.2052 N   0  0  0  0  0  0
  -21.7251   19.7459  -11.3566 C   0  0  0  0  0  0
  -22.2985   21.0946  -10.8831 C   0  0  0  0  0  0
  -22.3999   22.1388  -11.9744 C   0  0  0  0  0  0
  -23.3558   22.9061  -12.0620 O   0  0  0  0  0  0
  -21.3211   22.2368  -12.8309 N   0  0  0  0  0  0
  -22.9202   18.7349  -11.6414 C   0  0  0  0  0  0
  -23.2959   17.4678  -11.2014 C   0  0  0  0  0  0
  -24.6172   17.1871  -11.7036 C   0  0  0  0  0  0
  -24.9924   18.2712  -12.4460 C   0  0  0  0  0  0
  -26.2507   18.6455  -13.1893 C   0  0  0  0  0  0
  -23.9455   19.1593  -12.4283 O   0  0  0  0  0  0
  -21.3647   23.0065  -13.4897 H   0  0  0  0  0  0
  1  2  1  0  0  0
  2  3  1  0  0  0
  3  4  1  0  0  0
  4  5  1  0  0  0
  5  6  1  0  0  0
  6  7  1  0  0  0
  7  8  1  0  0  0
  8  9  2  0  0  0
  8 16  1  0  0  0
  9 10  1  0  0  0
  9 12  1  0  0  0
 10 11  3  0  0  0
 12 13  1  0  0  0
 12 17  1  0  0  0
 13 14  1  0  0  0
 14 15  2  0  0  0
 14 16  1  0  0  0
 16 23  1  0  0  0
 17 18  2  0  0  0
 17 22  1  0  0  0
 18 19  1  0  0  0
 19 20  2  0  0  0
 20 21  1  0  0  0
 20 22  1  0  0  0
M  END
>  <CHROM.0>
-61.26371148,66.51799572,-10.13534533,-61.14601291,168.60748741,-58.65346722
-36.01464737,-158.95042378

>  <CHROM.1>
-179.40801926,74.42024388,64.48554932,62.60478605,-169.36013406,40.65292049
107.77586462,-20.91088850,19.46699015,-13.68543532,0.34009051,-0.58267569
-2.92642948

>  <Name>
F0422-0197

>  <RI>
2.2387e+07

>  <Rbt.Current_Directory>
/home/adria/Escritorio/rDock_CMTR_LC/2pxcA_model/inputs_sah

>  <Rbt.Executable>
rbdock ($Id: //depot/dev/client3/rdock/2013.1/src/exe/rbdock.cxx#4 $)

>  <Rbt.Library>
libRbt.so (2013.1, Build901 2013/11/27)

>  <Rbt.Parameter_File>
/home/adria/Escritorio/rDock_2013.1_src/data/scripts/dock.prm

>  <Rbt.Receptor>
sah_rdock.prm

>  <SCORE>
-35.0755

>  <SCORE.INTER>
-7.10015

>  <SCORE.INTER.CONST>
1

>  <SCORE.INTER.POLAR>
-0.783831

>  <SCORE.INTER.REPUL>
0

>  <SCORE.INTER.ROT>
7

>  <SCORE.INTER.VDW>
-16.8351

>  <SCORE.INTER.norm>
-0.322734

>  <SCORE.INTRA>
-26.0958

>  <SCORE.INTRA.DIHEDRAL>
-10.2472

>  <SCORE.INTRA.DIHEDRAL.0>
14.0204

>  <SCORE.INTRA.POLAR>
0

>  <SCORE.INTRA.POLAR.0>
0

>  <SCORE.INTRA.REPUL>
0

>  <SCORE.INTRA.REPUL.0>
0

>  <SCORE.INTRA.VDW>
-20.9722

>  <SCORE.INTRA.VDW.0>
19.2467

>  <SCORE.INTRA.norm>
-1.18617

>  <SCORE.RESTR>
0

>  <SCORE.RESTR.CAVITY>
0

>  <SCORE.RESTR.norm>
0

>  <SCORE.SYSTEM>
-1.87951

>  <SCORE.SYSTEM.CONST>
0

>  <SCORE.SYSTEM.DIHEDRAL>
6.06265

>  <SCORE.SYSTEM.POLAR>
-4.2153

>  <SCORE.SYSTEM.VDW>
9.42118

>  <SCORE.SYSTEM.norm>
-0.0854322

>  <SCORE.heavy>
22

>  <SCORE.norm>
-1.59434

$$$$
F0422-0197
  rDOCK(R)          3D
libRbt.so/2013.1/901 2013/11/27
 23 24  0  0  0  0  0  0  0  0999 V2000
  -18.3026   13.6091  -14.8141 C   0  0  0  0  0  0
  -18.0356   14.5392  -15.8811 C   0  0  0  0  0  0
  -18.6898   15.8225  -15.5926 C   0  0  0  0  0  0
  -18.2759   16.7676  -16.6917 C   0  0  0  0  0  0
  -18.6429   18.2842  -16.4930 C   0  0  0  0  0  0
  -18.2187   19.2458  -15.2548 C   0  0  0  0  0  0
  -18.6490   19.2924  -13.3094 S   0  0  0  0  0  0
  -20.2395   20.0734  -12.8951 C   0  0  0  0  0  0
  -20.7395   21.1743  -13.5465 C   0  0  0  0  0  0
  -20.0234   21.7098  -14.6837 C   0  0  0  0  0  0
  -19.4197   22.1415  -15.5355 N   0  0  0  0  0  0
  -21.9323   22.0532  -12.9976 C   0  0  0  0  0  0
  -22.7020   21.2460  -11.9356 C   0  0  0  0  0  0
  -21.8201   20.3859  -11.0558 C   0  0  0  0  0  0
  -22.0230   20.2549   -9.8509 O   0  0  0  0  0  0
  -20.8109   19.6909  -11.6926 N   0  0  0  0  0  0
  -21.7123   23.5395  -12.4740 C   0  0  0  0  0  0
  -22.2150   24.8018  -12.7810 C   0  0  0  0  0  0
  -21.7469   25.7308  -11.7837 C   0  0  0  0  0  0
  -20.9621   25.0176  -10.9219 C   0  0  0  0  0  0
  -20.2225   25.3606   -9.6526 C   0  0  0  0  0  0
  -20.9232   23.7244  -11.3814 O   0  0  0  0  0  0
  -20.2968   19.0450  -11.1036 H   0  0  0  0  0  0
  1  2  1  0  0  0
  2  3  1  0  0  0
  3  4  1  0  0  0
  4  5  1  0  0  0
  5  6  1  0  0  0
  6  7  1  0  0  0
  7  8  1  0  0  0
  8  9  2  0  0  0
  8 16  1  0  0  0
  9 10  1  0  0  0
  9 12  1  0  0  0
 10 11  3  0  0  0
 12 13  1  0  0  0
 12 17  1  0  0  0
 13 14  1  0  0  0
 14 15  2  0  0  0
 14 16  1  0  0  0
 16 23  1  0  0  0
 17 18  2  0  0  0
 17 22  1  0  0  0
 18 19  1  0  0  0
 19 20  2  0  0  0
 20 21  1  0  0  0
 20 22  1  0  0  0
M  END
>  <CHROM.0>
-178.70488969,-75.22955132,-9.53431158,63.31019179,-29.94407001,-59.76722908
-156.72086945,-164.89319879

>  <CHROM.1>
175.63729864,-169.96864292,57.23810541,-66.15166843,-81.45890829,-37.50243751
122.75697062,-20.16236488,20.50019943,-13.22708511,0.78072238,-1.09983386
2.88624362

>  <Name>
F0422-0197

>  <RI>
2.2387e+07

>  <Rbt.Current_Directory>
/home/adria/Escritorio/rDock_CMTR_LC/2pxcA_model/inputs_sah

>  <Rbt.Executable>
rbdock ($Id: //depot/dev/client3/rdock/2013.1/src/exe/rbdock.cxx#4 $)

>  <Rbt.Library>
libRbt.so (2013.1, Build901 2013/11/27)

>  <Rbt.Parameter_File>
/home/adria/Escritorio/rDock_2013.1_src/data/scripts/dock.prm

>  <Rbt.Receptor>
sah_rdock.prm

>  <SCORE>
-47.9967

>  <SCORE.INTER>
-13.6976

>  <SCORE.INTER.CONST>
1

>  <SCORE.INTER.POLAR>
-0.599552

>  <SCORE.INTER.REPUL>
0

>  <SCORE.INTER.ROT>
7

>  <SCORE.INTER.VDW>
-24.0591

>  <SCORE.INTER.norm>
-0.622619

>  <SCORE.INTRA>
-27.0656

>  <SCORE.INTRA.DIHEDRAL>
-11.5053

>  <SCORE.INTRA.DIHEDRAL.0>
14.0204

>  <SCORE.INTRA.POLAR>
0

>  <SCORE.INTRA.POLAR.0>
0

>  <SCORE.INTRA.REPUL>
0

>  <SCORE.INTRA.REPUL.0>
0

>  <SCORE.INTRA.VDW>
-21.3129

>  <SCORE.INTRA.VDW.0>
19.2467

>  <SCORE.INTRA.norm>
-1.23025

>  <SCORE.RESTR>
0

>  <SCORE.RESTR.CAVITY>
0

>  <SCORE.RESTR.norm>
0

>  <SCORE.SYSTEM>
-7.23351

>  <SCORE.SYSTEM.CONST>
0

>  <SCORE.SYSTEM.DIHEDRAL>
9.64397

>  <SCORE.SYSTEM.POLAR>
-4.67851

>  <SCORE.SYSTEM.REPUL>
0.0422716

>  <SCORE.SYSTEM.VDW>
3.64008

>  <SCORE.SYSTEM.norm>
-0.328796

>  <SCORE.heavy>
22

>  <SCORE.norm>
-2.18167

$$$$
F0422-0197
  rDOCK(R)          3D
libRbt.so/2013.1/901 2013/11/27
 23 24  0  0  0  0  0  0  0  0999 V2000
  -23.3730   18.4425  -15.1873 C   0  0  0  0  0  0
  -23.7481   19.3582  -14.1405 C   0  0  0  0  0  0
  -25.0007   20.0350  -14.5022 C   0  0  0  0  0  0
  -25.3192   20.9752  -13.3677 C   0  0  0  0  0  0
  -26.6990   21.7270  -13.4410 C   0  0  0  0  0  0
  -27.3051   22.7796  -12.3629 C   0  0  0  0  0  0
  -26.6843   24.5128  -11.5996 S   0  0  0  0  0  0
  -25.1392   24.4189  -10.6428 C   0  0  0  0  0  0
  -23.8986   24.6757  -11.1731 C   0  0  0  0  0  0
  -23.7945   25.1312  -12.5423 C   0  0  0  0  0  0
  -23.7348   25.4349  -13.6288 N   0  0  0  0  0  0
  -22.5420   24.2837  -10.4644 C   0  0  0  0  0  0
  -22.8136   24.0252   -8.9706 C   0  0  0  0  0  0
  -24.1336   23.3377   -8.6938 C   0  0  0  0  0  0
  -24.2531   22.4677   -7.8341 O   0  0  0  0  0  0
  -25.2231   23.7918   -9.4105 N   0  0  0  0  0  0
  -21.5934   23.1403  -11.0341 C   0  0  0  0  0  0
  -20.2662   23.0428  -11.4454 C   0  0  0  0  0  0
  -19.9619   21.6520  -11.6684 C   0  0  0  0  0  0
  -21.1083   20.9543  -11.4114 C   0  0  0  0  0  0
  -21.4600   19.4873  -11.3997 C   0  0  0  0  0  0
  -22.0762   21.8692  -11.0781 O   0  0  0  0  0  0
  -26.1135   23.3889   -9.1393 H   0  0  0  0  0  0
  1  2  1  0  0  0
  2  3  1  0  0  0
  3  4  1  0  0  0
  4  5  1  0  0  0
  5  6  1  0  0  0
  6  7  1  0  0  0
  7  8  1  0  0  0
  8  9  2  0  0  0
  8 16  1  0  0  0
  9 10  1  0  0  0
  9 12  1  0  0  0
 10 11  3  0  0  0
 12 13  1  0  0  0
 12 17  1  0  0  0
 13 14  1  0  0  0
 14 15  2  0  0  0
 14 16  1  0  0  0
 16 23  1  0  0  0
 17 18  2  0  0  0
 17 22  1  0  0  0
 18 19  1  0  0  0
 19 20  2  0  0  0
 20 21  1  0  0  0
 20 22  1  0  0  0
M  END
>  <CHROM.0>
-63.40402826,-72.61078566,-84.43013502,64.43874176,167.64472195,-174.31273422
-38.45521603,-161.45870262

>  <CHROM.1>
-179.67902174,-174.17128273,179.43688719,57.93607916,-62.67359072,94.77173675
123.10975428,-23.84814802,22.56712751,-11.64138023,1.20876783,0.37721585
-2.37971092

>  <Name>
F0422-0197

>  <RI>
2.2387e+07

>  <Rbt.Current_Directory>
/home/adria/Escritorio/rDock_CMTR_LC/2pxcA_model/inputs_sah

>  <Rbt.Executable>
rbdock ($Id: //depot/dev/client3/rdock/2013.1/src/exe/rbdock.cxx#4 $)

>  <Rbt.Library>
libRbt.so (2013.1, Build901 2013/11/27)

>  <Rbt.Parameter_File>
/home/adria/Escritorio/rDock_2013.1_src/data/scripts/dock.prm

>  <Rbt.Receptor>
sah_rdock.prm

>  <SCORE>
-36.6161

>  <SCORE.INTER>
-8.45849

>  <SCORE.INTER.CONST>
1

>  <SCORE.INTER.POLAR>
-1.79691

>  <SCORE.INTER.REPUL>
0

>  <SCORE.INTER.ROT>
7

>  <SCORE.INTER.VDW>
-14.749

>  <SCORE.INTER.norm>
-0.384477

>  <SCORE.INTRA>
-27.2327

>  <SCORE.INTRA.DIHEDRAL>
-9.96585

>  <SCORE.INTRA.DIHEDRAL.0>
14.0204

>  <SCORE.INTRA.POLAR>
0

>  <SCORE.INTRA.POLAR.0>
0

>  <SCORE.INTRA.REPUL>
0

>  <SCORE.INTRA.REPUL.0>
0

>  <SCORE.INTRA.VDW>
-22.2498

>  <SCORE.INTRA.VDW.0>
19.2467

>  <SCORE.INTRA.norm>
-1.23785

>  <SCORE.RESTR>
0.168244

>  <SCORE.RESTR.CAVITY>
0.168244

>  <SCORE.RESTR.norm>
0.00764746

>  <SCORE.SYSTEM>
-1.09315

>  <SCORE.SYSTEM.CONST>
0

>  <SCORE.SYSTEM.DIHEDRAL>
4.51429

>  <SCORE.SYSTEM.POLAR>
-3.61037

>  <SCORE.SYSTEM.REPUL>
0.0378331

>  <SCORE.SYSTEM.VDW>
8.73581

>  <SCORE.SYSTEM.norm>
-0.0496888

>  <SCORE.heavy>
22

>  <SCORE.norm>
-1.66437

$$$$
