F3323-0632
  rDOCK(R)          3D
libRbt.so/2013.1/901 2013/11/27
 26 28  0  0  0  0  0  0  0  0999 V2000
  -21.7111   19.0467  -11.3767 C   0  0  0  0  0  0
  -20.9982   19.1372  -12.8756 C   0  0  0  0  0  0
  -19.6574   19.0553  -12.7058 O   0  0  0  0  0  0
  -19.2677   19.0866  -13.9992 C   0  0  0  0  0  0
  -19.3744   20.1844  -14.9356 C   0  0  0  0  0  0
  -19.0436   19.7622  -16.2215 C   0  0  0  0  0  0
  -18.5529   18.4393  -16.4472 C   0  0  0  0  0  0
  -18.3031   18.0386  -17.6975 F   0  0  0  0  0  0
  -18.3214   17.5042  -15.4384 C   0  0  0  0  0  0
  -18.6898   17.8379  -14.1835 C   0  0  0  0  0  0
  -19.8169   21.8266  -14.6574 C   0  0  0  0  0  0
  -19.5174   22.5753  -15.6027 O   0  0  0  0  0  0
  -20.7501   22.6210  -13.2589 C   0  0  0  0  0  0
  -22.3632   22.9058  -12.7110 N   0  0  0  0  0  0
  -22.8871   24.1486  -13.0805 C   0  0  0  0  0  0
  -22.4132   24.8340  -13.9199 O   0  0  0  0  0  0
  -24.2228   24.5148  -12.3711 C   0  0  0  0  0  0
  -24.1848   24.6499  -10.9532 O   0  0  0  0  0  0
  -24.2827   23.4964  -10.2279 C   0  0  0  0  0  0
  -23.8679   22.2490  -10.6783 C   0  0  0  0  0  0
  -23.8198   21.1998   -9.6951 C   0  0  0  0  0  0
  -24.2672   21.3774   -8.3656 C   0  0  0  0  0  0
  -24.8150   22.5941   -7.9964 C   0  0  0  0  0  0
  -24.7782   23.6524   -8.9108 C   0  0  0  0  0  0
  -23.3936   22.0525  -12.1734 C   0  0  0  0  0  0
  -23.8768   21.0873  -12.7667 O   0  0  0  0  0  0
  1  2  1  0  0  0
  2  3  1  0  0  0
  3  4  1  0  0  0
  4  5  2  0  0  0
  4 10  1  0  0  0
  5  6  1  0  0  0
  5 11  1  0  0  0
  6  7  2  0  0  0
  7  8  1  0  0  0
  7  9  1  0  0  0
  9 10  2  0  0  0
 11 12  2  0  0  0
 11 13  1  0  0  0
 13 14  1  0  0  0
 14 15  1  0  0  0
 14 25  1  0  0  0
 15 16  2  0  0  0
 15 17  1  0  0  0
 17 18  1  0  0  0
 18 19  1  0  0  0
 19 20  2  0  0  0
 19 24  1  0  0  0
 20 21  1  0  0  0
 20 25  1  0  0  0
 21 22  2  0  0  0
 22 23  1  0  0  0
 23 24  2  0  0  0
 25 26  2  0  0  0
M  END
>  <CHROM.0>
-60.24451274,-73.41959028,-168.49821545,63.62905329,167.97459288,57.77897992
-36.58457798,-164.83355166

>  <CHROM.1>
177.51180449,67.20050527,164.41082257,-82.34651059,-94.81750318,-21.62590584
21.29117326,-12.89589571,0.05571482,-0.90827974,2.53984345

>  <Name>
F3323-0632

>  <RI>
2.02817e+07

>  <Rbt.Current_Directory>
/home/adria/Escritorio/rDock_CMTR_LC/2pxcA_model/inputs_sah

>  <Rbt.Executable>
rbdock ($Id: //depot/dev/client3/rdock/2013.1/src/exe/rbdock.cxx#4 $)

>  <Rbt.Library>
libRbt.so (2013.1, Build901 2013/11/27)

>  <Rbt.Parameter_File>
/home/adria/Escritorio/rDock_2013.1_src/data/scripts/dock.prm

>  <Rbt.Receptor>
sah_rdock.prm

>  <SCORE>
-57.1746

>  <SCORE.INTER>
-10.6828

>  <SCORE.INTER.CONST>
1

>  <SCORE.INTER.POLAR>
-0.882403

>  <SCORE.INTER.REPUL>
0

>  <SCORE.INTER.ROT>
5

>  <SCORE.INTER.VDW>
-18.0827

>  <SCORE.INTER.norm>
-0.410878

>  <SCORE.INTRA>
-43.8893

>  <SCORE.INTRA.DIHEDRAL>
3.33126

>  <SCORE.INTRA.DIHEDRAL.0>
6.2315

>  <SCORE.INTRA.POLAR>
0

>  <SCORE.INTRA.POLAR.0>
0

>  <SCORE.INTRA.REPUL>
0

>  <SCORE.INTRA.REPUL.0>
0

>  <SCORE.INTRA.VDW>
-45.5549

>  <SCORE.INTRA.VDW.0>
45.0177

>  <SCORE.INTRA.norm>
-1.68805

>  <SCORE.RESTR>
0

>  <SCORE.RESTR.CAVITY>
0

>  <SCORE.RESTR.norm>
0

>  <SCORE.SYSTEM>
-2.60254

>  <SCORE.SYSTEM.CONST>
0

>  <SCORE.SYSTEM.DIHEDRAL>
3.45715

>  <SCORE.SYSTEM.POLAR>
-3.88397

>  <SCORE.SYSTEM.REPUL>
0.0392762

>  <SCORE.SYSTEM.VDW>
8.67799

>  <SCORE.SYSTEM.norm>
-0.100098

>  <SCORE.heavy>
26

>  <SCORE.norm>
-2.19902

$$$$
F3323-0632
  rDOCK(R)          3D
libRbt.so/2013.1/901 2013/11/27
 26 28  0  0  0  0  0  0  0  0999 V2000
  -20.6594   21.6855  -13.7471 C   0  0  0  0  0  0
  -21.2856   22.8014  -12.6861 C   0  0  0  0  0  0
  -20.6094   23.9623  -12.8542 O   0  0  0  0  0  0
  -21.1508   24.6821  -11.8470 C   0  0  0  0  0  0
  -22.4720   25.2682  -11.7806 C   0  0  0  0  0  0
  -22.5823   26.0969  -10.6660 C   0  0  0  0  0  0
  -21.5192   26.1790   -9.7147 C   0  0  0  0  0  0
  -21.6238   27.0288   -8.6885 F   0  0  0  0  0  0
  -20.3436   25.4314   -9.7834 C   0  0  0  0  0  0
  -20.1561   24.6650  -10.8785 C   0  0  0  0  0  0
  -23.8196   25.0617  -12.8348 C   0  0  0  0  0  0
  -24.4539   26.1137  -13.0211 O   0  0  0  0  0  0
  -24.3964   23.5848  -13.8063 C   0  0  0  0  0  0
  -24.6767   21.8892  -13.6334 N   0  0  0  0  0  0
  -24.2949   21.3647  -12.3945 C   0  0  0  0  0  0
  -24.0705   22.0315  -11.4438 O   0  0  0  0  0  0
  -24.2964   19.8099  -12.3318 C   0  0  0  0  0  0
  -23.3969   19.1278  -13.2012 O   0  0  0  0  0  0
  -23.8199   18.9330  -14.4854 C   0  0  0  0  0  0
  -24.7141   19.7626  -15.1511 C   0  0  0  0  0  0
  -24.8525   19.5455  -16.5666 C   0  0  0  0  0  0
  -24.2076   18.4847  -17.2436 C   0  0  0  0  0  0
  -23.4436   17.5878  -16.5166 C   0  0  0  0  0  0
  -23.2197   17.8419  -15.1591 C   0  0  0  0  0  0
  -25.4510   20.9302  -14.3815 C   0  0  0  0  0  0
  -26.6671   21.0071  -14.5612 O   0  0  0  0  0  0
  1  2  1  0  0  0
  2  3  1  0  0  0
  3  4  1  0  0  0
  4  5  2  0  0  0
  4 10  1  0  0  0
  5  6  1  0  0  0
  5 11  1  0  0  0
  6  7  2  0  0  0
  7  8  1  0  0  0
  7  9  1  0  0  0
  9 10  2  0  0  0
 11 12  2  0  0  0
 11 13  1  0  0  0
 13 14  1  0  0  0
 14 15  1  0  0  0
 14 25  1  0  0  0
 15 16  2  0  0  0
 15 17  1  0  0  0
 17 18  1  0  0  0
 18 19  1  0  0  0
 19 20  2  0  0  0
 19 24  1  0  0  0
 20 21  1  0  0  0
 20 25  1  0  0  0
 21 22  2  0  0  0
 22 23  1  0  0  0
 23 24  2  0  0  0
 25 26  2  0  0  0
M  END
>  <CHROM.0>
-58.87464583,67.12434339,75.36571188,66.18360336,168.07316366,59.16924527
-155.92770148,-163.53113955

>  <CHROM.1>
-174.30379036,-73.90442715,-141.32427305,46.20144079,-4.97061519,-23.14942176
22.40729354,-12.98819718,-1.90388651,-0.29545792,0.51798649

>  <Name>
F3323-0632

>  <RI>
2.02817e+07

>  <Rbt.Current_Directory>
/home/adria/Escritorio/rDock_CMTR_LC/2pxcA_model/inputs_sah

>  <Rbt.Executable>
rbdock ($Id: //depot/dev/client3/rdock/2013.1/src/exe/rbdock.cxx#4 $)

>  <Rbt.Library>
libRbt.so (2013.1, Build901 2013/11/27)

>  <Rbt.Parameter_File>
/home/adria/Escritorio/rDock_2013.1_src/data/scripts/dock.prm

>  <Rbt.Receptor>
sah_rdock.prm

>  <SCORE>
-55.3951

>  <SCORE.INTER>
-10.1485

>  <SCORE.INTER.CONST>
1

>  <SCORE.INTER.POLAR>
-0.740432

>  <SCORE.INTER.REPUL>
0.0314075

>  <SCORE.INTER.ROT>
5

>  <SCORE.INTER.VDW>
-18.188

>  <SCORE.INTER.norm>
-0.390326

>  <SCORE.INTRA>
-42.622

>  <SCORE.INTRA.DIHEDRAL>
6.11181

>  <SCORE.INTRA.DIHEDRAL.0>
6.2315

>  <SCORE.INTRA.POLAR>
0

>  <SCORE.INTRA.POLAR.0>
0

>  <SCORE.INTRA.REPUL>
0

>  <SCORE.INTRA.REPUL.0>
0

>  <SCORE.INTRA.VDW>
-45.6779

>  <SCORE.INTRA.VDW.0>
45.0177

>  <SCORE.INTRA.norm>
-1.63931

>  <SCORE.RESTR>
0

>  <SCORE.RESTR.CAVITY>
0

>  <SCORE.RESTR.norm>
0

>  <SCORE.SYSTEM>
-2.62466

>  <SCORE.SYSTEM.CONST>
0

>  <SCORE.SYSTEM.DIHEDRAL>
3.30996

>  <SCORE.SYSTEM.POLAR>
-3.74334

>  <SCORE.SYSTEM.VDW>
8.44772

>  <SCORE.SYSTEM.norm>
-0.100948

>  <SCORE.heavy>
26

>  <SCORE.norm>
-2.13058

$$$$
F3323-0632
  rDOCK(R)          3D
libRbt.so/2013.1/901 2013/11/27
 26 28  0  0  0  0  0  0  0  0999 V2000
  -21.4640   23.2517  -11.6978 C   0  0  0  0  0  0
  -20.4078   22.2123  -12.4508 C   0  0  0  0  0  0
  -20.8673   21.9859  -13.7042 O   0  0  0  0  0  0
  -19.9192   21.1256  -14.1360 C   0  0  0  0  0  0
  -19.6555   19.7820  -13.6683 C   0  0  0  0  0  0
  -18.4745   19.2951  -14.2245 C   0  0  0  0  0  0
  -17.7709   20.0523  -15.2111 C   0  0  0  0  0  0
  -16.6078   19.5924  -15.6821 F   0  0  0  0  0  0
  -18.2083   21.2733  -15.7241 C   0  0  0  0  0  0
  -19.3100   21.8227  -15.1706 C   0  0  0  0  0  0
  -20.5727   18.7921  -12.5964 C   0  0  0  0  0  0
  -20.0829   17.6605  -12.4443 O   0  0  0  0  0  0
  -22.0737   19.1706  -11.5661 C   0  0  0  0  0  0
  -23.5916   19.9903  -11.6540 N   0  0  0  0  0  0
  -23.9287   20.4446  -12.9329 C   0  0  0  0  0  0
  -23.3943   20.0728  -13.9203 O   0  0  0  0  0  0
  -25.1520   21.4058  -12.9669 C   0  0  0  0  0  0
  -25.0222   22.6409  -12.2685 O   0  0  0  0  0  0
  -25.2662   22.6101  -10.9247 C   0  0  0  0  0  0
  -25.0782   21.4937  -10.1188 C   0  0  0  0  0  0
  -25.1487   21.7136   -8.6987 C   0  0  0  0  0  0
  -25.4952   22.9632   -8.1351 C   0  0  0  0  0  0
  -25.8232   24.0131   -8.9759 C   0  0  0  0  0  0
  -25.6641   23.8439  -10.3555 C   0  0  0  0  0  0
  -24.7165   20.0940  -10.7581 C   0  0  0  0  0  0
  -25.3762   19.1346  -10.3564 O   0  0  0  0  0  0
  1  2  1  0  0  0
  2  3  1  0  0  0
  3  4  1  0  0  0
  4  5  2  0  0  0
  4 10  1  0  0  0
  5  6  1  0  0  0
  5 11  1  0  0  0
  6  7  2  0  0  0
  7  8  1  0  0  0
  7  9  1  0  0  0
  9 10  2  0  0  0
 11 12  2  0  0  0
 11 13  1  0  0  0
 13 14  1  0  0  0
 14 15  1  0  0  0
 14 25  1  0  0  0
 15 16  2  0  0  0
 15 17  1  0  0  0
 17 18  1  0  0  0
 18 19  1  0  0  0
 19 20  2  0  0  0
 19 24  1  0  0  0
 20 21  1  0  0  0
 20 25  1  0  0  0
 21 22  2  0  0  0
 22 23  1  0  0  0
 23 24  2  0  0  0
 25 26  2  0  0  0
M  END
>  <CHROM.0>
-60.44488014,-169.63314805,-127.57214682,65.32226786,168.62980289,-54.66802427
-156.53880063,-164.31966906

>  <CHROM.1>
-178.92468639,66.73789371,177.40714901,42.77641973,8.14014281,-22.21040516
20.98261525,-12.37586214,-2.94547959,-0.60508900,3.05763047

>  <Name>
F3323-0632

>  <RI>
2.02817e+07

>  <Rbt.Current_Directory>
/home/adria/Escritorio/rDock_CMTR_LC/2pxcA_model/inputs_sah

>  <Rbt.Executable>
rbdock ($Id: //depot/dev/client3/rdock/2013.1/src/exe/rbdock.cxx#4 $)

>  <Rbt.Library>
libRbt.so (2013.1, Build901 2013/11/27)

>  <Rbt.Parameter_File>
/home/adria/Escritorio/rDock_2013.1_src/data/scripts/dock.prm

>  <Rbt.Receptor>
sah_rdock.prm

>  <SCORE>
-56.2018

>  <SCORE.INTER>
-9.2956

>  <SCORE.INTER.CONST>
1

>  <SCORE.INTER.POLAR>
-0.728224

>  <SCORE.INTER.REPUL>
0

>  <SCORE.INTER.ROT>
5

>  <SCORE.INTER.VDW>
-17.2196

>  <SCORE.INTER.norm>
-0.357523

>  <SCORE.INTRA>
-45.7576

>  <SCORE.INTRA.DIHEDRAL>
1.53851

>  <SCORE.INTRA.DIHEDRAL.0>
6.2315

>  <SCORE.INTRA.POLAR>
0

>  <SCORE.INTRA.POLAR.0>
0

>  <SCORE.INTRA.REPUL>
0

>  <SCORE.INTRA.REPUL.0>
0

>  <SCORE.INTRA.VDW>
-46.5268

>  <SCORE.INTRA.VDW.0>
45.0177

>  <SCORE.INTRA.norm>
-1.75991

>  <SCORE.RESTR>
0

>  <SCORE.RESTR.CAVITY>
0

>  <SCORE.RESTR.norm>
0

>  <SCORE.SYSTEM>
-1.14858

>  <SCORE.SYSTEM.CONST>
0

>  <SCORE.SYSTEM.DIHEDRAL>
6.35339

>  <SCORE.SYSTEM.POLAR>
-4.19035

>  <SCORE.SYSTEM.VDW>
9.9219

>  <SCORE.SYSTEM.norm>
-0.0441761

>  <SCORE.heavy>
26

>  <SCORE.norm>
-2.16161

$$$$
F3323-0632
  rDOCK(R)          3D
libRbt.so/2013.1/901 2013/11/27
 26 28  0  0  0  0  0  0  0  0999 V2000
  -18.7924   18.0866  -14.9775 C   0  0  0  0  0  0
  -19.9855   18.6848  -13.9867 C   0  0  0  0  0  0
  -19.9315   18.0101  -12.8141 O   0  0  0  0  0  0
  -20.9789   18.5822  -12.1806 C   0  0  0  0  0  0
  -21.1006   19.9459  -11.7127 C   0  0  0  0  0  0
  -22.2489   20.0948  -10.9378 C   0  0  0  0  0  0
  -23.1761   19.0164  -10.7998 C   0  0  0  0  0  0
  -24.2368   19.1638  -10.0002 F   0  0  0  0  0  0
  -23.0494   17.7841  -11.4409 C   0  0  0  0  0  0
  -21.9211   17.5630  -12.1479 C   0  0  0  0  0  0
  -20.0728   21.3001  -11.9952 C   0  0  0  0  0  0
  -18.9660   20.9791  -12.4596 O   0  0  0  0  0  0
  -20.3842   23.1261  -11.8318 C   0  0  0  0  0  0
  -21.5920   24.2404  -11.3000 N   0  0  0  0  0  0
  -21.3097   24.8572  -10.0771 C   0  0  0  0  0  0
  -20.2376   24.8572   -9.5775 O   0  0  0  0  0  0
  -22.5040   25.6492   -9.4707 C   0  0  0  0  0  0
  -23.6688   24.9017   -9.1321 O   0  0  0  0  0  0
  -24.5437   24.6422  -10.1486 C   0  0  0  0  0  0
  -24.1820   24.5317  -11.4858 C   0  0  0  0  0  0
  -25.1860   24.0144  -12.3771 C   0  0  0  0  0  0
  -26.5064   23.7303  -11.9584 C   0  0  0  0  0  0
  -26.8697   23.9972  -10.6494 C   0  0  0  0  0  0
  -25.8810   24.4062   -9.7479 C   0  0  0  0  0  0
  -22.7109   24.8761  -11.9504 C   0  0  0  0  0  0
  -22.6176   25.6087  -12.9361 O   0  0  0  0  0  0
  1  2  1  0  0  0
  2  3  1  0  0  0
  3  4  1  0  0  0
  4  5  2  0  0  0
  4 10  1  0  0  0
  5  6  1  0  0  0
  5 11  1  0  0  0
  6  7  2  0  0  0
  7  8  1  0  0  0
  7  9  1  0  0  0
  9 10  2  0  0  0
 11 12  2  0  0  0
 11 13  1  0  0  0
 13 14  1  0  0  0
 14 15  1  0  0  0
 14 25  1  0  0  0
 15 16  2  0  0  0
 15 17  1  0  0  0
 17 18  1  0  0  0
 18 19  1  0  0  0
 19 20  2  0  0  0
 19 24  1  0  0  0
 20 21  1  0  0  0
 20 25  1  0  0  0
 21 22  2  0  0  0
 22 23  1  0  0  0
 23 24  2  0  0  0
 25 26  2  0  0  0
M  END
>  <CHROM.0>
-61.52979587,-167.56088759,-44.04386472,61.90887586,-29.91811649,178.37020507
-38.09530328,-165.40829650

>  <CHROM.1>
-177.70306210,-67.77603493,-14.31915600,5.32018157,105.72557140,-22.35348779
21.99584969,-11.46306849,-1.05952920,0.27655153,0.17454752

>  <Name>
F3323-0632

>  <RI>
2.02817e+07

>  <Rbt.Current_Directory>
/home/adria/Escritorio/rDock_CMTR_LC/2pxcA_model/inputs_sah

>  <Rbt.Executable>
rbdock ($Id: //depot/dev/client3/rdock/2013.1/src/exe/rbdock.cxx#4 $)

>  <Rbt.Library>
libRbt.so (2013.1, Build901 2013/11/27)

>  <Rbt.Parameter_File>
/home/adria/Escritorio/rDock_2013.1_src/data/scripts/dock.prm

>  <Rbt.Receptor>
sah_rdock.prm

>  <SCORE>
-66.0179

>  <SCORE.INTER>
-16.2914

>  <SCORE.INTER.CONST>
1

>  <SCORE.INTER.POLAR>
-1.62537

>  <SCORE.INTER.REPUL>
0

>  <SCORE.INTER.ROT>
5

>  <SCORE.INTER.VDW>
-21.1652

>  <SCORE.INTER.norm>
-0.626593

>  <SCORE.INTRA>
-43.399

>  <SCORE.INTRA.DIHEDRAL>
1.95148

>  <SCORE.INTRA.DIHEDRAL.0>
6.2315

>  <SCORE.INTRA.POLAR>
0

>  <SCORE.INTRA.POLAR.0>
0

>  <SCORE.INTRA.REPUL>
0

>  <SCORE.INTRA.REPUL.0>
0

>  <SCORE.INTRA.VDW>
-44.3748

>  <SCORE.INTRA.VDW.0>
45.0177

>  <SCORE.INTRA.norm>
-1.66919

>  <SCORE.RESTR>
0

>  <SCORE.RESTR.CAVITY>
0

>  <SCORE.RESTR.norm>
0

>  <SCORE.SYSTEM>
-6.32749

>  <SCORE.SYSTEM.CONST>
0

>  <SCORE.SYSTEM.DIHEDRAL>
6.34516

>  <SCORE.SYSTEM.POLAR>
-3.66331

>  <SCORE.SYSTEM.VDW>
2.95519

>  <SCORE.SYSTEM.norm>
-0.243365

>  <SCORE.heavy>
26

>  <SCORE.norm>
-2.53915

$$$$
F3323-0632
  rDOCK(R)          3D
libRbt.so/2013.1/901 2013/11/27
 26 28  0  0  0  0  0  0  0  0999 V2000
  -14.3077   18.4964  -17.6068 C   0  0  0  0  0  0
  -14.7098   16.8843  -17.5561 C   0  0  0  0  0  0
  -15.3475   16.5767  -18.7102 O   0  0  0  0  0  0
  -15.8075   15.3476  -18.3886 C   0  0  0  0  0  0
  -16.6863   14.9821  -17.2990 C   0  0  0  0  0  0
  -16.7695   13.5960  -17.1836 C   0  0  0  0  0  0
  -16.1376   12.7486  -18.1451 C   0  0  0  0  0  0
  -16.1787   11.4235  -17.9765 F   0  0  0  0  0  0
  -15.4511   13.2098  -19.2683 C   0  0  0  0  0  0
  -15.2820   14.5433  -19.3908 C   0  0  0  0  0  0
  -17.5798   15.9891  -16.2231 C   0  0  0  0  0  0
  -18.2697   15.3434  -15.4164 O   0  0  0  0  0  0
  -17.5902   17.8354  -16.0020 C   0  0  0  0  0  0
  -18.6748   19.1469  -15.7068 N   0  0  0  0  0  0
  -18.2587   20.3710  -16.2396 C   0  0  0  0  0  0
  -17.4082   20.4733  -17.0552 O   0  0  0  0  0  0
  -19.0881   21.5942  -15.7526 C   0  0  0  0  0  0
  -19.0545   21.8829  -14.3577 O   0  0  0  0  0  0
  -19.9101   21.1701  -13.5666 C   0  0  0  0  0  0
  -20.3654   19.8899  -13.8581 C   0  0  0  0  0  0
  -21.0573   19.2031  -12.8001 C   0  0  0  0  0  0
  -21.3632   19.8160  -11.5631 C   0  0  0  0  0  0
  -21.0247   21.1442  -11.3680 C   0  0  0  0  0  0
  -20.2659   21.7949  -12.3469 C   0  0  0  0  0  0
  -20.0416   19.2212  -15.2534 C   0  0  0  0  0  0
  -20.9954   18.6995  -15.8322 O   0  0  0  0  0  0
  1  2  1  0  0  0
  2  3  1  0  0  0
  3  4  1  0  0  0
  4  5  2  0  0  0
  4 10  1  0  0  0
  5  6  1  0  0  0
  5 11  1  0  0  0
  6  7  2  0  0  0
  7  8  1  0  0  0
  7  9  1  0  0  0
  9 10  2  0  0  0
 11 12  2  0  0  0
 11 13  1  0  0  0
 13 14  1  0  0  0
 14 15  1  0  0  0
 14 25  1  0  0  0
 15 16  2  0  0  0
 15 17  1  0  0  0
 17 18  1  0  0  0
 18 19  1  0  0  0
 19 20  2  0  0  0
 19 24  1  0  0  0
 20 21  1  0  0  0
 20 25  1  0  0  0
 21 22  2  0  0  0
 22 23  1  0  0  0
 23 24  2  0  0  0
 25 26  2  0  0  0
M  END
>  <CHROM.0>
-178.02357784,-168.69524952,-44.00989878,64.43261168,168.00314634,-64.76808712
-37.17080342,-163.48072664

>  <CHROM.1>
-169.01945200,59.05722325,178.20267708,140.34754194,-151.09244374,-17.93629338
17.69829528,-16.01244194,-0.86094831,0.75497458,0.08055326

>  <Name>
F3323-0632

>  <RI>
2.02817e+07

>  <Rbt.Current_Directory>
/home/adria/Escritorio/rDock_CMTR_LC/2pxcA_model/inputs_sah

>  <Rbt.Executable>
rbdock ($Id: //depot/dev/client3/rdock/2013.1/src/exe/rbdock.cxx#4 $)

>  <Rbt.Library>
libRbt.so (2013.1, Build901 2013/11/27)

>  <Rbt.Parameter_File>
/home/adria/Escritorio/rDock_2013.1_src/data/scripts/dock.prm

>  <Rbt.Receptor>
sah_rdock.prm

>  <SCORE>
-57.1612

>  <SCORE.INTER>
-11.9619

>  <SCORE.INTER.CONST>
1

>  <SCORE.INTER.POLAR>
-0.848528

>  <SCORE.INTER.REPUL>
0.00534844

>  <SCORE.INTER.ROT>
5

>  <SCORE.INTER.VDW>
-19.5036

>  <SCORE.INTER.norm>
-0.460072

>  <SCORE.INTRA>
-44.2282

>  <SCORE.INTRA.DIHEDRAL>
0.713126

>  <SCORE.INTRA.DIHEDRAL.0>
6.2315

>  <SCORE.INTRA.POLAR>
0

>  <SCORE.INTRA.POLAR.0>
0

>  <SCORE.INTRA.REPUL>
0

>  <SCORE.INTRA.REPUL.0>
0

>  <SCORE.INTRA.VDW>
-44.5848

>  <SCORE.INTRA.VDW.0>
45.0177

>  <SCORE.INTRA.norm>
-1.70109

>  <SCORE.RESTR>
0

>  <SCORE.RESTR.CAVITY>
0

>  <SCORE.RESTR.norm>
0

>  <SCORE.SYSTEM>
-0.971092

>  <SCORE.SYSTEM.CONST>
0

>  <SCORE.SYSTEM.DIHEDRAL>
3.59404

>  <SCORE.SYSTEM.POLAR>
-3.5719

>  <SCORE.SYSTEM.VDW>
9.37635

>  <SCORE.SYSTEM.norm>
-0.0373497

>  <SCORE.heavy>
26

>  <SCORE.norm>
-2.19851

$$$$
F3323-0632
  rDOCK(R)          3D
libRbt.so/2013.1/901 2013/11/27
 26 28  0  0  0  0  0  0  0  0999 V2000
  -20.4584   21.3925  -11.9043 C   0  0  0  0  0  0
  -21.0146   20.8309  -13.3666 C   0  0  0  0  0  0
  -21.6645   19.6639  -13.1456 O   0  0  0  0  0  0
  -21.9368   19.3165  -14.4227 C   0  0  0  0  0  0
  -21.0001   19.0091  -15.4817 C   0  0  0  0  0  0
  -21.6641   18.8908  -16.7008 C   0  0  0  0  0  0
  -23.0905   18.9525  -16.7592 C   0  0  0  0  0  0
  -23.6995   18.8999  -17.9477 F   0  0  0  0  0  0
  -23.9179   19.0806  -15.6436 C   0  0  0  0  0  0
  -23.3241   19.2683  -14.4461 C   0  0  0  0  0  0
  -19.2939   18.7789  -15.4065 C   0  0  0  0  0  0
  -18.8785   18.6131  -14.2473 O   0  0  0  0  0  0
  -18.0206   18.6260  -16.7530 C   0  0  0  0  0  0
  -16.4880   17.8977  -17.0762 N   0  0  0  0  0  0
  -15.5867   18.7259  -17.7524 C   0  0  0  0  0  0
  -15.7226   19.8968  -17.8506 O   0  0  0  0  0  0
  -14.3173   17.9944  -18.2766 C   0  0  0  0  0  0
  -14.5172   16.9679  -19.2444 O   0  0  0  0  0  0
  -14.8541   15.7342  -18.7642 C   0  0  0  0  0  0
  -15.5365   15.5156  -17.5735 C   0  0  0  0  0  0
  -16.0192   14.1785  -17.3517 C   0  0  0  0  0  0
  -15.7340   13.1076  -18.2299 C   0  0  0  0  0  0
  -14.9227   13.3355  -19.3283 C   0  0  0  0  0  0
  -14.5277   14.6476  -19.6111 C   0  0  0  0  0  0
  -15.8289   16.7134  -16.5843 C   0  0  0  0  0  0
  -15.5592   16.5089  -15.4001 O   0  0  0  0  0  0
  1  2  1  0  0  0
  2  3  1  0  0  0
  3  4  1  0  0  0
  4  5  2  0  0  0
  4 10  1  0  0  0
  5  6  1  0  0  0
  5 11  1  0  0  0
  6  7  2  0  0  0
  7  8  1  0  0  0
  7  9  1  0  0  0
  9 10  2  0  0  0
 11 12  2  0  0  0
 11 13  1  0  0  0
 13 14  1  0  0  0
 14 15  1  0  0  0
 14 25  1  0  0  0
 15 16  2  0  0  0
 15 17  1  0  0  0
 17 18  1  0  0  0
 18 19  1  0  0  0
 19 20  2  0  0  0
 19 24  1  0  0  0
 20 21  1  0  0  0
 20 25  1  0  0  0
 21 22  2  0  0  0
 22 23  1  0  0  0
 23 24  2  0  0  0
 25 26  2  0  0  0
M  END
>  <CHROM.0>
-61.13013828,67.85663217,110.70049960,64.82098574,-30.39255030,-68.12756953
-37.24669377,-159.88968971

>  <CHROM.1>
-175.23472934,63.38530318,14.71186612,-151.26798600,-137.45443398,-18.41283646
17.86228185,-16.48266697,-2.50166600,0.05180359,-2.34002748

>  <Name>
F3323-0632

>  <RI>
2.02817e+07

>  <Rbt.Current_Directory>
/home/adria/Escritorio/rDock_CMTR_LC/2pxcA_model/inputs_sah

>  <Rbt.Executable>
rbdock ($Id: //depot/dev/client3/rdock/2013.1/src/exe/rbdock.cxx#4 $)

>  <Rbt.Library>
libRbt.so (2013.1, Build901 2013/11/27)

>  <Rbt.Parameter_File>
/home/adria/Escritorio/rDock_2013.1_src/data/scripts/dock.prm

>  <Rbt.Receptor>
sah_rdock.prm

>  <SCORE>
-58.4576

>  <SCORE.INTER>
-7.40512

>  <SCORE.INTER.CONST>
1

>  <SCORE.INTER.POLAR>
-0.308101

>  <SCORE.INTER.REPUL>
0.0171203

>  <SCORE.INTER.ROT>
5

>  <SCORE.INTER.VDW>
-16.8432

>  <SCORE.INTER.norm>
-0.284812

>  <SCORE.INTRA>
-44.1653

>  <SCORE.INTRA.DIHEDRAL>
1.26159

>  <SCORE.INTRA.DIHEDRAL.0>
6.2315

>  <SCORE.INTRA.POLAR>
0

>  <SCORE.INTRA.POLAR.0>
0

>  <SCORE.INTRA.REPUL>
0

>  <SCORE.INTRA.REPUL.0>
0

>  <SCORE.INTRA.VDW>
-44.7961

>  <SCORE.INTRA.VDW.0>
45.0177

>  <SCORE.INTRA.norm>
-1.69867

>  <SCORE.RESTR>
0

>  <SCORE.RESTR.CAVITY>
0

>  <SCORE.RESTR.norm>
0

>  <SCORE.SYSTEM>
-6.88721

>  <SCORE.SYSTEM.CONST>
0

>  <SCORE.SYSTEM.DIHEDRAL>
9.19862

>  <SCORE.SYSTEM.POLAR>
-4.29744

>  <SCORE.SYSTEM.VDW>
3.12479

>  <SCORE.SYSTEM.norm>
-0.264893

>  <SCORE.heavy>
26

>  <SCORE.norm>
-2.24837

$$$$
F3323-0632
  rDOCK(R)          3D
libRbt.so/2013.1/901 2013/11/27
 26 28  0  0  0  0  0  0  0  0999 V2000
  -25.2087   24.0123  -11.3189 C   0  0  0  0  0  0
  -23.5786   24.0248  -10.9935 C   0  0  0  0  0  0
  -23.0856   25.2260  -11.3771 O   0  0  0  0  0  0
  -21.7747   25.0190  -11.1233 C   0  0  0  0  0  0
  -20.8818   24.0759  -11.7609 C   0  0  0  0  0  0
  -19.6627   24.0272  -11.0879 C   0  0  0  0  0  0
  -19.3929   24.9247  -10.0093 C   0  0  0  0  0  0
  -18.2416   24.8151   -9.3395 F   0  0  0  0  0  0
  -20.2669   25.9238   -9.5809 C   0  0  0  0  0  0
  -21.4886   25.9698  -10.1529 C   0  0  0  0  0  0
  -21.1335   23.0951  -13.1554 C   0  0  0  0  0  0
  -22.2891   23.1790  -13.6039 O   0  0  0  0  0  0
  -19.9554   22.0479  -14.1420 C   0  0  0  0  0  0
  -19.9223   20.6335  -15.1330 N   0  0  0  0  0  0
  -20.9582   19.7284  -14.8816 C   0  0  0  0  0  0
  -21.9311   20.0029  -14.2674 O   0  0  0  0  0  0
  -20.7816   18.3470  -15.5759 C   0  0  0  0  0  0
  -19.6488   17.5722  -15.1930 O   0  0  0  0  0  0
  -18.4679   17.8722  -15.8106 C   0  0  0  0  0  0
  -18.1397   19.1274  -16.3083 C   0  0  0  0  0  0
  -16.7687   19.3194  -16.7001 C   0  0  0  0  0  0
  -15.8174   18.2734  -16.6898 C   0  0  0  0  0  0
  -16.2219   16.9990  -16.3301 C   0  0  0  0  0  0
  -17.5245   16.8173  -15.8531 C   0  0  0  0  0  0
  -19.2161   20.2846  -16.3407 C   0  0  0  0  0  0
  -19.3099   20.9001  -17.4034 O   0  0  0  0  0  0
  1  2  1  0  0  0
  2  3  1  0  0  0
  3  4  1  0  0  0
  4  5  2  0  0  0
  4 10  1  0  0  0
  5  6  1  0  0  0
  5 11  1  0  0  0
  6  7  2  0  0  0
  7  8  1  0  0  0
  7  9  1  0  0  0
  9 10  2  0  0  0
 11 12  2  0  0  0
 11 13  1  0  0  0
 13 14  1  0  0  0
 14 15  1  0  0  0
 14 25  1  0  0  0
 15 16  2  0  0  0
 15 17  1  0  0  0
 17 18  1  0  0  0
 18 19  1  0  0  0
 19 20  2  0  0  0
 19 24  1  0  0  0
 20 21  1  0  0  0
 20 25  1  0  0  0
 21 22  2  0  0  0
 22 23  1  0  0  0
 23 24  2  0  0  0
 25 26  2  0  0  0
M  END
>  <CHROM.0>
-178.70731989,66.95648329,-128.36610523,65.62403607,-30.53436624,63.86755366
83.51830707,-159.60733484

>  <CHROM.1>
-176.26414600,64.88869338,-4.68965527,151.48336968,-24.50375280,-20.12506594
21.67308829,-13.56964208,1.96213238,-0.09880615,0.74136339

>  <Name>
F3323-0632

>  <RI>
2.02817e+07

>  <Rbt.Current_Directory>
/home/adria/Escritorio/rDock_CMTR_LC/2pxcA_model/inputs_sah

>  <Rbt.Executable>
rbdock ($Id: //depot/dev/client3/rdock/2013.1/src/exe/rbdock.cxx#4 $)

>  <Rbt.Library>
libRbt.so (2013.1, Build901 2013/11/27)

>  <Rbt.Parameter_File>
/home/adria/Escritorio/rDock_2013.1_src/data/scripts/dock.prm

>  <Rbt.Receptor>
sah_rdock.prm

>  <SCORE>
-64.7256

>  <SCORE.INTER>
-13.9315

>  <SCORE.INTER.CONST>
1

>  <SCORE.INTER.POLAR>
-0.87178

>  <SCORE.INTER.REPUL>
0

>  <SCORE.INTER.ROT>
5

>  <SCORE.INTER.VDW>
-21.3675

>  <SCORE.INTER.norm>
-0.535827

>  <SCORE.INTRA>
-44.577

>  <SCORE.INTRA.DIHEDRAL>
0.640961

>  <SCORE.INTRA.DIHEDRAL.0>
6.2315

>  <SCORE.INTRA.POLAR>
0

>  <SCORE.INTRA.POLAR.0>
0

>  <SCORE.INTRA.REPUL>
0

>  <SCORE.INTRA.REPUL.0>
0

>  <SCORE.INTRA.VDW>
-44.8975

>  <SCORE.INTRA.VDW.0>
45.0177

>  <SCORE.INTRA.norm>
-1.7145

>  <SCORE.RESTR>
0

>  <SCORE.RESTR.CAVITY>
0

>  <SCORE.RESTR.norm>
0

>  <SCORE.SYSTEM>
-6.21712

>  <SCORE.SYSTEM.CONST>
0

>  <SCORE.SYSTEM.DIHEDRAL>
9.14943

>  <SCORE.SYSTEM.POLAR>
-4.19323

>  <SCORE.SYSTEM.VDW>
3.46514

>  <SCORE.SYSTEM.norm>
-0.23912

>  <SCORE.heavy>
26

>  <SCORE.norm>
-2.48945

$$$$
F3323-0632
  rDOCK(R)          3D
libRbt.so/2013.1/901 2013/11/27
 26 28  0  0  0  0  0  0  0  0999 V2000
  -23.1590   20.3674   -8.5482 C   0  0  0  0  0  0
  -23.2587   19.7520  -10.0891 C   0  0  0  0  0  0
  -23.5779   18.4397   -9.9946 O   0  0  0  0  0  0
  -23.6575   18.1356  -11.3087 C   0  0  0  0  0  0
  -22.5857   18.0919  -12.2797 C   0  0  0  0  0  0
  -23.0986   17.9313  -13.5651 C   0  0  0  0  0  0
  -24.4968   17.7167  -13.7670 C   0  0  0  0  0  0
  -24.9721   17.6290  -15.0130 F   0  0  0  0  0  0
  -25.4310   17.6024  -12.7375 C   0  0  0  0  0  0
  -24.9986   17.8187  -11.4773 C   0  0  0  0  0  0
  -20.8821   18.1952  -12.0408 C   0  0  0  0  0  0
  -20.5253   17.7938  -10.9204 O   0  0  0  0  0  0
  -19.5131   18.6878  -13.1988 C   0  0  0  0  0  0
  -19.0650   18.5975  -14.8645 N   0  0  0  0  0  0
  -19.5457   17.4659  -15.5308 C   0  0  0  0  0  0
  -20.4074   16.7751  -15.1073 O   0  0  0  0  0  0
  -18.9289   17.2462  -16.9425 C   0  0  0  0  0  0
  -17.5239   17.0181  -17.0047 O   0  0  0  0  0  0
  -16.7248   18.1259  -16.9860 C   0  0  0  0  0  0
  -17.0660   19.3290  -16.3799 C   0  0  0  0  0  0
  -16.0102   20.2971  -16.2458 C   0  0  0  0  0  0
  -14.7196   20.1005  -16.7888 C   0  0  0  0  0  0
  -14.4637   18.9515  -17.5176 C   0  0  0  0  0  0
  -15.4473   17.9581  -17.5730 C   0  0  0  0  0  0
  -18.5189   19.5510  -15.7982 C   0  0  0  0  0  0
  -19.0655   20.6096  -16.1104 O   0  0  0  0  0  0
  1  2  1  0  0  0
  2  3  1  0  0  0
  3  4  1  0  0  0
  4  5  2  0  0  0
  4 10  1  0  0  0
  5  6  1  0  0  0
  5 11  1  0  0  0
  6  7  2  0  0  0
  7  8  1  0  0  0
  7  9  1  0  0  0
  9 10  2  0  0  0
 11 12  2  0  0  0
 11 13  1  0  0  0
 13 14  1  0  0  0
 14 15  1  0  0  0
 14 25  1  0  0  0
 15 16  2  0  0  0
 15 17  1  0  0  0
 17 18  1  0  0  0
 18 19  1  0  0  0
 19 20  2  0  0  0
 19 24  1  0  0  0
 20 21  1  0  0  0
 20 25  1  0  0  0
 21 22  2  0  0  0
 22 23  1  0  0  0
 23 24  2  0  0  0
 25 26  2  0  0  0
M  END
>  <CHROM.0>
-60.07570292,-71.51539962,-129.59056791,64.54931097,-28.99195660,63.53724791
68.51120545,-163.02215877

>  <CHROM.1>
178.00655014,67.82290658,27.23571266,-34.26758177,-30.85058864,-20.38106814
18.45550514,-14.10857108,-2.58243974,-0.31530224,-1.95802796

>  <Name>
F3323-0632

>  <RI>
2.02817e+07

>  <Rbt.Current_Directory>
/home/adria/Escritorio/rDock_CMTR_LC/2pxcA_model/inputs_sah

>  <Rbt.Executable>
rbdock ($Id: //depot/dev/client3/rdock/2013.1/src/exe/rbdock.cxx#4 $)

>  <Rbt.Library>
libRbt.so (2013.1, Build901 2013/11/27)

>  <Rbt.Parameter_File>
/home/adria/Escritorio/rDock_2013.1_src/data/scripts/dock.prm

>  <Rbt.Receptor>
sah_rdock.prm

>  <SCORE>
-62.4789

>  <SCORE.INTER>
-12.3759

>  <SCORE.INTER.CONST>
1

>  <SCORE.INTER.POLAR>
-1.02313

>  <SCORE.INTER.REPUL>
0.00188369

>  <SCORE.INTER.ROT>
5

>  <SCORE.INTER.VDW>
-19.3066

>  <SCORE.INTER.norm>
-0.475995

>  <SCORE.INTRA>
-43.6979

>  <SCORE.INTRA.DIHEDRAL>
3.19146

>  <SCORE.INTRA.DIHEDRAL.0>
6.2315

>  <SCORE.INTRA.POLAR>
0

>  <SCORE.INTRA.POLAR.0>
0

>  <SCORE.INTRA.REPUL>
0

>  <SCORE.INTRA.REPUL.0>
0

>  <SCORE.INTRA.VDW>
-45.2936

>  <SCORE.INTRA.VDW.0>
45.0177

>  <SCORE.INTRA.norm>
-1.68069

>  <SCORE.RESTR>
0

>  <SCORE.RESTR.CAVITY>
0

>  <SCORE.RESTR.norm>
0

>  <SCORE.SYSTEM>
-6.40513

>  <SCORE.SYSTEM.CONST>
0

>  <SCORE.SYSTEM.DIHEDRAL>
8.52065

>  <SCORE.SYSTEM.POLAR>
-4.09734

>  <SCORE.SYSTEM.REPUL>
0.0357773

>  <SCORE.SYSTEM.VDW>
3.08662

>  <SCORE.SYSTEM.norm>
-0.246351

>  <SCORE.heavy>
26

>  <SCORE.norm>
-2.40303

$$$$
F3323-0632
  rDOCK(R)          3D
libRbt.so/2013.1/901 2013/11/27
 26 28  0  0  0  0  0  0  0  0999 V2000
  -22.8420   26.3826  -12.2184 C   0  0  0  0  0  0
  -23.1510   25.1229  -11.1789 C   0  0  0  0  0  0
  -24.4662   24.8156  -11.2748 O   0  0  0  0  0  0
  -24.4907   23.7036  -10.5076 C   0  0  0  0  0  0
  -23.8422   22.4345  -10.7572 C   0  0  0  0  0  0
  -24.2670   21.4803   -9.8350 C   0  0  0  0  0  0
  -25.1258   21.8480   -8.7537 C   0  0  0  0  0  0
  -25.5698   20.9023   -7.9202 F   0  0  0  0  0  0
  -25.5592   23.1497   -8.5020 C   0  0  0  0  0  0
  -25.2332   24.0999   -9.4035 C   0  0  0  0  0  0
  -22.6863   22.0097  -11.9627 C   0  0  0  0  0  0
  -22.5039   22.9118  -12.7974 O   0  0  0  0  0  0
  -21.6092   20.5052  -12.1472 C   0  0  0  0  0  0
  -21.2352   19.2509  -13.2743 N   0  0  0  0  0  0
  -21.3530   17.9568  -12.7575 C   0  0  0  0  0  0
  -21.9225   17.7041  -11.7521 O   0  0  0  0  0  0
  -20.7657   16.8466  -13.6762 C   0  0  0  0  0  0
  -19.3674   16.9029  -13.9438 O   0  0  0  0  0  0
  -18.9718   17.7415  -14.9470 C   0  0  0  0  0  0
  -19.6563   18.8903  -15.3247 C   0  0  0  0  0  0
  -18.9674   19.7757  -16.2254 C   0  0  0  0  0  0
  -17.7101   19.4630  -16.7917 C   0  0  0  0  0  0
  -17.1294   18.2387  -16.5075 C   0  0  0  0  0  0
  -17.7383   17.4106  -15.5583 C   0  0  0  0  0  0
  -21.0734   19.2200  -14.7067 C   0  0  0  0  0  0
  -21.9484   19.5398  -15.5123 O   0  0  0  0  0  0
  1  2  1  0  0  0
  2  3  1  0  0  0
  3  4  1  0  0  0
  4  5  2  0  0  0
  4 10  1  0  0  0
  5  6  1  0  0  0
  5 11  1  0  0  0
  6  7  2  0  0  0
  7  8  1  0  0  0
  7  9  1  0  0  0
  9 10  2  0  0  0
 11 12  2  0  0  0
 11 13  1  0  0  0
 13 14  1  0  0  0
 14 15  1  0  0  0
 14 25  1  0  0  0
 15 16  2  0  0  0
 15 17  1  0  0  0
 17 18  1  0  0  0
 18 19  1  0  0  0
 19 20  2  0  0  0
 19 24  1  0  0  0
 20 21  1  0  0  0
 20 25  1  0  0  0
 21 22  2  0  0  0
 22 23  1  0  0  0
 23 24  2  0  0  0
 25 26  2  0  0  0
M  END
>  <CHROM.0>
-65.45801984,-166.07040404,-164.97011283,62.94522437,-29.60379355,178.59700441
-155.75881396,-162.24463703

>  <CHROM.1>
173.07288727,-65.26517303,-7.57323013,124.67121156,-126.72163610,-21.95684176
20.72790510,-12.56440749,-2.71829389,-0.86431109,2.90064584

>  <Name>
F3323-0632

>  <RI>
2.02817e+07

>  <Rbt.Current_Directory>
/home/adria/Escritorio/rDock_CMTR_LC/2pxcA_model/inputs_sah

>  <Rbt.Executable>
rbdock ($Id: //depot/dev/client3/rdock/2013.1/src/exe/rbdock.cxx#4 $)

>  <Rbt.Library>
libRbt.so (2013.1, Build901 2013/11/27)

>  <Rbt.Parameter_File>
/home/adria/Escritorio/rDock_2013.1_src/data/scripts/dock.prm

>  <Rbt.Receptor>
sah_rdock.prm

>  <SCORE>
-57.0135

>  <SCORE.INTER>
-7.43861

>  <SCORE.INTER.CONST>
1

>  <SCORE.INTER.POLAR>
-0.822373

>  <SCORE.INTER.REPUL>
0

>  <SCORE.INTER.ROT>
5

>  <SCORE.INTER.VDW>
-15.0425

>  <SCORE.INTER.norm>
-0.286101

>  <SCORE.INTRA>
-43.2512

>  <SCORE.INTRA.DIHEDRAL>
1.56664

>  <SCORE.INTRA.DIHEDRAL.0>
6.2315

>  <SCORE.INTRA.POLAR>
0

>  <SCORE.INTRA.POLAR.0>
0

>  <SCORE.INTRA.REPUL>
0

>  <SCORE.INTRA.REPUL.0>
0

>  <SCORE.INTRA.VDW>
-44.0345

>  <SCORE.INTRA.VDW.0>
45.0177

>  <SCORE.INTRA.norm>
-1.66351

>  <SCORE.RESTR>
0

>  <SCORE.RESTR.CAVITY>
0

>  <SCORE.RESTR.norm>
0

>  <SCORE.SYSTEM>
-6.32373

>  <SCORE.SYSTEM.CONST>
0

>  <SCORE.SYSTEM.DIHEDRAL>
7.02509

>  <SCORE.SYSTEM.POLAR>
-3.74585

>  <SCORE.SYSTEM.VDW>
2.89961

>  <SCORE.SYSTEM.norm>
-0.24322

>  <SCORE.heavy>
26

>  <SCORE.norm>
-2.19283

$$$$
F3323-0632
  rDOCK(R)          3D
libRbt.so/2013.1/901 2013/11/27
 26 28  0  0  0  0  0  0  0  0999 V2000
  -19.5526   25.5936   -9.8371 C   0  0  0  0  0  0
  -20.8080   25.1431  -10.8292 C   0  0  0  0  0  0
  -21.7560   24.5551  -10.0620 O   0  0  0  0  0  0
  -22.5070   23.9891  -11.0322 C   0  0  0  0  0  0
  -22.0768   23.0918  -12.0826 C   0  0  0  0  0  0
  -23.1059   22.8849  -12.9988 C   0  0  0  0  0  0
  -24.4066   23.4280  -12.7641 C   0  0  0  0  0  0
  -25.3585   23.2689  -13.6886 F   0  0  0  0  0  0
  -24.7655   24.1420  -11.6209 C   0  0  0  0  0  0
  -23.7894   24.4297  -10.7343 C   0  0  0  0  0  0
  -20.5599   22.3038  -12.3014 C   0  0  0  0  0  0
  -19.8182   22.3975  -11.3090 O   0  0  0  0  0  0
  -19.9136   21.2634  -13.7006 C   0  0  0  0  0  0
  -20.1656   19.7359  -14.4665 N   0  0  0  0  0  0
  -19.9064   19.7296  -15.8407 C   0  0  0  0  0  0
  -19.3025   20.5819  -16.3956 O   0  0  0  0  0  0
  -20.3835   18.4430  -16.5745 C   0  0  0  0  0  0
  -21.7828   18.1749  -16.5637 O   0  0  0  0  0  0
  -22.2756   17.5508  -15.4530 C   0  0  0  0  0  0
  -21.7202   17.6549  -14.1834 C   0  0  0  0  0  0
  -22.5085   17.1346  -13.0981 C   0  0  0  0  0  0
  -23.7320   16.4550  -13.2995 C   0  0  0  0  0  0
  -24.1772   16.2391  -14.5926 C   0  0  0  0  0  0
  -23.4740   16.8234  -15.6516 C   0  0  0  0  0  0
  -20.3391   18.3935  -13.9696 C   0  0  0  0  0  0
  -19.5115   17.7945  -13.2817 O   0  0  0  0  0  0
  1  2  1  0  0  0
  2  3  1  0  0  0
  3  4  1  0  0  0
  4  5  2  0  0  0
  4 10  1  0  0  0
  5  6  1  0  0  0
  5 11  1  0  0  0
  6  7  2  0  0  0
  7  8  1  0  0  0
  7  9  1  0  0  0
  9 10  2  0  0  0
 11 12  2  0  0  0
 11 13  1  0  0  0
 13 14  1  0  0  0
 14 15  1  0  0  0
 14 25  1  0  0  0
 15 16  2  0  0  0
 15 17  1  0  0  0
 17 18  1  0  0  0
 18 19  1  0  0  0
 19 20  2  0  0  0
 19 24  1  0  0  0
 20 21  1  0  0  0
 20 25  1  0  0  0
 21 22  2  0  0  0
 22 23  1  0  0  0
 23 24  2  0  0  0
 25 26  2  0  0  0
M  END
>  <CHROM.0>
-173.98912732,62.87048622,-166.86553351,64.12140930,-30.60018281,61.24788162
-155.91749329,-160.42675427

>  <CHROM.1>
-166.17977535,54.50678686,10.63560880,-67.80793297,147.96633368,-21.80765512
20.88355784,-13.31876906,-1.61999367,-0.06352717,-2.61083347

>  <Name>
F3323-0632

>  <RI>
2.02817e+07

>  <Rbt.Current_Directory>
/home/adria/Escritorio/rDock_CMTR_LC/2pxcA_model/inputs_sah

>  <Rbt.Executable>
rbdock ($Id: //depot/dev/client3/rdock/2013.1/src/exe/rbdock.cxx#4 $)

>  <Rbt.Library>
libRbt.so (2013.1, Build901 2013/11/27)

>  <Rbt.Parameter_File>
/home/adria/Escritorio/rDock_2013.1_src/data/scripts/dock.prm

>  <Rbt.Receptor>
sah_rdock.prm

>  <SCORE>
-60.0965

>  <SCORE.INTER>
-10.51

>  <SCORE.INTER.CONST>
1

>  <SCORE.INTER.POLAR>
-0.824621

>  <SCORE.INTER.REPUL>
0.00519641

>  <SCORE.INTER.ROT>
5

>  <SCORE.INTER.VDW>
-18.1323

>  <SCORE.INTER.norm>
-0.404232

>  <SCORE.INTRA>
-42.8332

>  <SCORE.INTRA.DIHEDRAL>
2.50805

>  <SCORE.INTRA.DIHEDRAL.0>
6.2315

>  <SCORE.INTRA.POLAR>
0

>  <SCORE.INTRA.POLAR.0>
0

>  <SCORE.INTRA.REPUL>
0

>  <SCORE.INTRA.REPUL.0>
0

>  <SCORE.INTRA.VDW>
-44.0872

>  <SCORE.INTRA.VDW.0>
45.0177

>  <SCORE.INTRA.norm>
-1.64743

>  <SCORE.RESTR>
0

>  <SCORE.RESTR.CAVITY>
0

>  <SCORE.RESTR.norm>
0

>  <SCORE.SYSTEM>
-6.75332

>  <SCORE.SYSTEM.CONST>
0

>  <SCORE.SYSTEM.DIHEDRAL>
5.99087

>  <SCORE.SYSTEM.POLAR>
-3.71195

>  <SCORE.SYSTEM.VDW>
2.87188

>  <SCORE.SYSTEM.norm>
-0.259743

>  <SCORE.heavy>
26

>  <SCORE.norm>
-2.31141

$$$$
F3323-0632
  rDOCK(R)          3D
libRbt.so/2013.1/901 2013/11/27
 26 28  0  0  0  0  0  0  0  0999 V2000
  -24.0900   19.7266   -8.9192 C   0  0  0  0  0  0
  -22.9759   20.8134   -9.5028 C   0  0  0  0  0  0
  -23.5292   21.4505  -10.5617 O   0  0  0  0  0  0
  -22.5271   22.3090  -10.8524 C   0  0  0  0  0  0
  -21.2094   22.0000  -11.3640 C   0  0  0  0  0  0
  -20.4010   23.1347  -11.3459 C   0  0  0  0  0  0
  -20.9417   24.4051  -10.9775 C   0  0  0  0  0  0
  -20.1311   25.4653  -10.9068 F   0  0  0  0  0  0
  -22.2825   24.6275  -10.6640 C   0  0  0  0  0  0
  -23.0939   23.5508  -10.5994 C   0  0  0  0  0  0
  -20.5834   20.5081  -11.9575 C   0  0  0  0  0  0
  -21.3012   19.5347  -11.6731 O   0  0  0  0  0  0
  -19.1069   20.1411  -13.0267 C   0  0  0  0  0  0
  -18.6989   19.5277  -14.5890 N   0  0  0  0  0  0
  -19.2544   18.2781  -14.8814 C   0  0  0  0  0  0
  -20.1436   17.7983  -14.2665 O   0  0  0  0  0  0
  -18.6799   17.6082  -16.1630 C   0  0  0  0  0  0
  -17.2910   17.2904  -16.1581 O   0  0  0  0  0  0
  -16.4324   18.3039  -16.4770 C   0  0  0  0  0  0
  -16.6947   19.6514  -16.2608 C   0  0  0  0  0  0
  -15.5850   20.5517  -16.4284 C   0  0  0  0  0  0
  -14.3186   20.1259  -16.8910 C   0  0  0  0  0  0
  -14.1410   18.7979  -17.2402 C   0  0  0  0  0  0
  -15.1784   17.8931  -16.9902 C   0  0  0  0  0  0
  -18.1210   20.1225  -15.7685 C   0  0  0  0  0  0
  -18.6152   21.0681  -16.3837 O   0  0  0  0  0  0
  1  2  1  0  0  0
  2  3  1  0  0  0
  3  4  1  0  0  0
  4  5  2  0  0  0
  4 10  1  0  0  0
  5  6  1  0  0  0
  5 11  1  0  0  0
  6  7  2  0  0  0
  7  8  1  0  0  0
  7  9  1  0  0  0
  9 10  2  0  0  0
 11 12  2  0  0  0
 11 13  1  0  0  0
 13 14  1  0  0  0
 14 15  1  0  0  0
 14 25  1  0  0  0
 15 16  2  0  0  0
 15 17  1  0  0  0
 17 18  1  0  0  0
 18 19  1  0  0  0
 19 20  2  0  0  0
 19 24  1  0  0  0
 20 21  1  0  0  0
 20 25  1  0  0  0
 21 22  2  0  0  0
 22 23  1  0  0  0
 23 24  2  0  0  0
 25 26  2  0  0  0
M  END
>  <CHROM.0>
-61.45543116,-72.07995730,73.56166300,-60.31743996,-31.00719579,-177.98397465
-36.36944451,-163.24679014

>  <CHROM.1>
177.42812431,67.51529529,-14.14602709,-114.10834295,-53.61566426,-19.50854324
20.57995075,-13.43452354,2.53581027,0.66568970,0.29888140

>  <Name>
F3323-0632

>  <RI>
2.02817e+07

>  <Rbt.Current_Directory>
/home/adria/Escritorio/rDock_CMTR_LC/2pxcA_model/inputs_sah

>  <Rbt.Executable>
rbdock ($Id: //depot/dev/client3/rdock/2013.1/src/exe/rbdock.cxx#4 $)

>  <Rbt.Library>
libRbt.so (2013.1, Build901 2013/11/27)

>  <Rbt.Parameter_File>
/home/adria/Escritorio/rDock_2013.1_src/data/scripts/dock.prm

>  <Rbt.Receptor>
sah_rdock.prm

>  <SCORE>
-61.6755

>  <SCORE.INTER>
-10.4345

>  <SCORE.INTER.CONST>
1

>  <SCORE.INTER.POLAR>
0

>  <SCORE.INTER.REPUL>
0.043725

>  <SCORE.INTER.ROT>
5

>  <SCORE.INTER.VDW>
-21.0531

>  <SCORE.INTER.norm>
-0.401326

>  <SCORE.INTRA>
-43.586

>  <SCORE.INTRA.DIHEDRAL>
2.58256

>  <SCORE.INTRA.DIHEDRAL.0>
6.2315

>  <SCORE.INTRA.POLAR>
0

>  <SCORE.INTRA.POLAR.0>
0

>  <SCORE.INTRA.REPUL>
0

>  <SCORE.INTRA.REPUL.0>
0

>  <SCORE.INTRA.VDW>
-44.8773

>  <SCORE.INTRA.VDW.0>
45.0177

>  <SCORE.INTRA.norm>
-1.67639

>  <SCORE.RESTR>
0

>  <SCORE.RESTR.CAVITY>
0

>  <SCORE.RESTR.norm>
0

>  <SCORE.SYSTEM>
-7.65503

>  <SCORE.SYSTEM.CONST>
0

>  <SCORE.SYSTEM.DIHEDRAL>
6.17239

>  <SCORE.SYSTEM.POLAR>
-4.08056

>  <SCORE.SYSTEM.REPUL>
0.0368513

>  <SCORE.SYSTEM.VDW>
2.94843

>  <SCORE.SYSTEM.norm>
-0.294424

>  <SCORE.heavy>
26

>  <SCORE.norm>
-2.37214

$$$$
F3323-0632
  rDOCK(R)          3D
libRbt.so/2013.1/901 2013/11/27
 26 28  0  0  0  0  0  0  0  0999 V2000
  -25.0561   23.6611   -8.7690 C   0  0  0  0  0  0
  -23.4450   23.8946   -9.1049 C   0  0  0  0  0  0
  -23.3495   24.8824  -10.0260 O   0  0  0  0  0  0
  -22.0497   24.7423  -10.3675 C   0  0  0  0  0  0
  -21.3872   23.5667  -10.8894 C   0  0  0  0  0  0
  -20.0082   23.7617  -10.9297 C   0  0  0  0  0  0
  -19.4453   25.0335  -10.6019 C   0  0  0  0  0  0
  -18.1166   25.1765  -10.5868 F   0  0  0  0  0  0
  -20.1944   26.1635  -10.2742 C   0  0  0  0  0  0
  -21.5301   26.0118  -10.1534 C   0  0  0  0  0  0
  -22.0609   22.0772  -11.4348 C   0  0  0  0  0  0
  -23.3008   22.1053  -11.5093 O   0  0  0  0  0  0
  -21.2489   20.5122  -12.0260 C   0  0  0  0  0  0
  -21.5652   19.1185  -12.9960 N   0  0  0  0  0  0
  -20.5717   18.1361  -12.9360 C   0  0  0  0  0  0
  -19.7350   18.1033  -12.1006 O   0  0  0  0  0  0
  -20.7204   17.0118  -14.0013 C   0  0  0  0  0  0
  -20.6302   17.4020  -15.3687 O   0  0  0  0  0  0
  -21.7697   17.8946  -15.9388 C   0  0  0  0  0  0
  -22.7769   18.5487  -15.2398 C   0  0  0  0  0  0
  -23.7768   19.2118  -16.0338 C   0  0  0  0  0  0
  -23.8133   19.1253  -17.4447 C   0  0  0  0  0  0
  -22.8784   18.3383  -18.0953 C   0  0  0  0  0  0
  -21.8428   17.7682  -17.3471 C   0  0  0  0  0  0
  -22.7430   18.6189  -13.6610 C   0  0  0  0  0  0
  -23.7948   18.3305  -13.0887 O   0  0  0  0  0  0
  1  2  1  0  0  0
  2  3  1  0  0  0
  3  4  1  0  0  0
  4  5  2  0  0  0
  4 10  1  0  0  0
  5  6  1  0  0  0
  5 11  1  0  0  0
  6  7  2  0  0  0
  7  8  1  0  0  0
  7  9  1  0  0  0
  9 10  2  0  0  0
 11 12  2  0  0  0
 11 13  1  0  0  0
 13 14  1  0  0  0
 14 15  1  0  0  0
 14 25  1  0  0  0
 15 16  2  0  0  0
 15 17  1  0  0  0
 17 18  1  0  0  0
 18 19  1  0  0  0
 19 20  2  0  0  0
 19 24  1  0  0  0
 20 21  1  0  0  0
 20 25  1  0  0  0
 21 22  2  0  0  0
 22 23  1  0  0  0
 23 24  2  0  0  0
 25 26  2  0  0  0
M  END
>  <CHROM.0>
176.09586372,-75.31614334,-44.81947323,-63.25295834,-29.88552018,179.71093228
-157.75976560,-162.40684523

>  <CHROM.1>
-168.12244832,57.62024550,8.40737668,-156.82380449,-171.82733440,-21.81256054
21.15511461,-12.65107165,1.48970308,-0.00706080,0.68430796

>  <Name>
F3323-0632

>  <RI>
2.02817e+07

>  <Rbt.Current_Directory>
/home/adria/Escritorio/rDock_CMTR_LC/2pxcA_model/inputs_sah

>  <Rbt.Executable>
rbdock ($Id: //depot/dev/client3/rdock/2013.1/src/exe/rbdock.cxx#4 $)

>  <Rbt.Library>
libRbt.so (2013.1, Build901 2013/11/27)

>  <Rbt.Parameter_File>
/home/adria/Escritorio/rDock_2013.1_src/data/scripts/dock.prm

>  <Rbt.Receptor>
sah_rdock.prm

>  <SCORE>
-62.3031

>  <SCORE.INTER>
-11.6738

>  <SCORE.INTER.CONST>
1

>  <SCORE.INTER.POLAR>
-1.0498

>  <SCORE.INTER.REPUL>
0.0803404

>  <SCORE.INTER.ROT>
5

>  <SCORE.INTER.VDW>
-18.9062

>  <SCORE.INTER.norm>
-0.448992

>  <SCORE.INTRA>
-43.5369

>  <SCORE.INTRA.DIHEDRAL>
1.72391

>  <SCORE.INTRA.DIHEDRAL.0>
6.2315

>  <SCORE.INTRA.POLAR>
0

>  <SCORE.INTRA.POLAR.0>
0

>  <SCORE.INTRA.REPUL>
0

>  <SCORE.INTRA.REPUL.0>
0

>  <SCORE.INTRA.VDW>
-44.3988

>  <SCORE.INTRA.VDW.0>
45.0177

>  <SCORE.INTRA.norm>
-1.67449

>  <SCORE.RESTR>
0

>  <SCORE.RESTR.CAVITY>
0

>  <SCORE.RESTR.norm>
0

>  <SCORE.SYSTEM>
-7.09244

>  <SCORE.SYSTEM.CONST>
0

>  <SCORE.SYSTEM.DIHEDRAL>
6.91224

>  <SCORE.SYSTEM.POLAR>
-4.05811

>  <SCORE.SYSTEM.REPUL>
0.0424067

>  <SCORE.SYSTEM.VDW>
3.03698

>  <SCORE.SYSTEM.norm>
-0.272786

>  <SCORE.heavy>
26

>  <SCORE.norm>
-2.39627

$$$$
F3323-0632
  rDOCK(R)          3D
libRbt.so/2013.1/901 2013/11/27
 26 28  0  0  0  0  0  0  0  0999 V2000
  -22.2097   17.1052  -13.3022 C   0  0  0  0  0  0
  -20.9471   17.4008  -14.3422 C   0  0  0  0  0  0
  -19.8447   16.7931  -13.8438 O   0  0  0  0  0  0
  -19.0163   16.9338  -14.9020 C   0  0  0  0  0  0
  -18.4571   18.1551  -15.4396 C   0  0  0  0  0  0
  -17.8120   17.9049  -16.6490 C   0  0  0  0  0  0
  -17.6686   16.5677  -17.1319 C   0  0  0  0  0  0
  -17.1023   16.3601  -18.3245 F   0  0  0  0  0  0
  -18.0977   15.4332  -16.4432 C   0  0  0  0  0  0
  -18.7897   15.6232  -15.3001 C   0  0  0  0  0  0
  -18.4867   19.7534  -14.7959 C   0  0  0  0  0  0
  -18.1667   20.6171  -15.6299 O   0  0  0  0  0  0
  -19.0182   20.3914  -13.1321 C   0  0  0  0  0  0
  -20.4315   20.8904  -12.2736 N   0  0  0  0  0  0
  -21.1250   19.8490  -11.6489 C   0  0  0  0  0  0
  -20.6645   18.7751  -11.4654 O   0  0  0  0  0  0
  -22.5272   20.2507  -11.1068 C   0  0  0  0  0  0
  -23.4912   20.6790  -12.0646 O   0  0  0  0  0  0
  -23.4257   21.9871  -12.4529 C   0  0  0  0  0  0
  -22.2617   22.7462  -12.4586 C   0  0  0  0  0  0
  -22.3335   24.0181  -13.1271 C   0  0  0  0  0  0
  -23.5370   24.5343  -13.6605 C   0  0  0  0  0  0
  -24.7080   23.8132  -13.5006 C   0  0  0  0  0  0
  -24.6374   22.5326  -12.9415 C   0  0  0  0  0  0
  -20.9263   22.1725  -11.8371 C   0  0  0  0  0  0
  -20.3229   22.9271  -11.0733 O   0  0  0  0  0  0
  1  2  1  0  0  0
  2  3  1  0  0  0
  3  4  1  0  0  0
  4  5  2  0  0  0
  4 10  1  0  0  0
  5  6  1  0  0  0
  5 11  1  0  0  0
  6  7  2  0  0  0
  7  8  1  0  0  0
  7  9  1  0  0  0
  9 10  2  0  0  0
 11 12  2  0  0  0
 11 13  1  0  0  0
 13 14  1  0  0  0
 14 15  1  0  0  0
 14 25  1  0  0  0
 15 16  2  0  0  0
 15 17  1  0  0  0
 17 18  1  0  0  0
 18 19  1  0  0  0
 19 20  2  0  0  0
 19 24  1  0  0  0
 20 21  1  0  0  0
 20 25  1  0  0  0
 21 22  2  0  0  0
 22 23  1  0  0  0
 23 24  2  0  0  0
 25 26  2  0  0  0
M  END
>  <CHROM.0>
-60.84007052,66.09083597,-130.23336489,62.50535843,168.33610508,-48.73966637
83.90312101,-164.38809710

>  <CHROM.1>
169.79727108,67.12724320,-165.61862860,-84.72636044,86.50164271,-20.57236456
19.71235985,-13.82062589,0.66426746,-0.79140058,2.98513347

>  <Name>
F3323-0632

>  <RI>
2.02817e+07

>  <Rbt.Current_Directory>
/home/adria/Escritorio/rDock_CMTR_LC/2pxcA_model/inputs_sah

>  <Rbt.Executable>
rbdock ($Id: //depot/dev/client3/rdock/2013.1/src/exe/rbdock.cxx#4 $)

>  <Rbt.Library>
libRbt.so (2013.1, Build901 2013/11/27)

>  <Rbt.Parameter_File>
/home/adria/Escritorio/rDock_2013.1_src/data/scripts/dock.prm

>  <Rbt.Receptor>
sah_rdock.prm

>  <SCORE>
-57.2574

>  <SCORE.INTER>
-11.3305

>  <SCORE.INTER.CONST>
1

>  <SCORE.INTER.POLAR>
-0.824621

>  <SCORE.INTER.REPUL>
0

>  <SCORE.INTER.ROT>
5

>  <SCORE.INTER.VDW>
-18.9268

>  <SCORE.INTER.norm>
-0.435789

>  <SCORE.INTRA>
-44.3774

>  <SCORE.INTRA.DIHEDRAL>
1.75259

>  <SCORE.INTRA.DIHEDRAL.0>
6.2315

>  <SCORE.INTRA.POLAR>
0

>  <SCORE.INTRA.POLAR.0>
0

>  <SCORE.INTRA.REPUL>
0

>  <SCORE.INTRA.REPUL.0>
0

>  <SCORE.INTRA.VDW>
-45.2537

>  <SCORE.INTRA.VDW.0>
45.0177

>  <SCORE.INTRA.norm>
-1.70682

>  <SCORE.RESTR>
0

>  <SCORE.RESTR.CAVITY>
0

>  <SCORE.RESTR.norm>
0

>  <SCORE.SYSTEM>
-1.54946

>  <SCORE.SYSTEM.CONST>
0

>  <SCORE.SYSTEM.DIHEDRAL>
6.10163

>  <SCORE.SYSTEM.POLAR>
-4.10519

>  <SCORE.SYSTEM.VDW>
9.35738

>  <SCORE.SYSTEM.norm>
-0.0595948

>  <SCORE.heavy>
26

>  <SCORE.norm>
-2.20221

$$$$
F3323-0632
  rDOCK(R)          3D
libRbt.so/2013.1/901 2013/11/27
 26 28  0  0  0  0  0  0  0  0999 V2000
  -22.7726   17.9451  -17.4905 C   0  0  0  0  0  0
  -22.0533   18.7009  -16.1965 C   0  0  0  0  0  0
  -21.7651   17.7572  -15.2694 O   0  0  0  0  0  0
  -21.2695   18.5492  -14.2933 C   0  0  0  0  0  0
  -21.9613   19.5705  -13.5372 C   0  0  0  0  0  0
  -21.0602   20.2984  -12.7630 C   0  0  0  0  0  0
  -19.6845   19.9172  -12.6997 C   0  0  0  0  0  0
  -18.8288   20.6691  -12.0008 F   0  0  0  0  0  0
  -19.1486   18.7994  -13.3391 C   0  0  0  0  0  0
  -19.9630   18.0996  -14.1569 C   0  0  0  0  0  0
  -23.6420   19.9476  -13.4823 C   0  0  0  0  0  0
  -24.3562   19.0441  -13.9486 O   0  0  0  0  0  0
  -24.5458   21.3992  -12.7515 C   0  0  0  0  0  0
  -24.3483   23.0869  -12.4416 N   0  0  0  0  0  0
  -24.4206   23.8950  -13.5806 C   0  0  0  0  0  0
  -24.8560   23.5264  -14.6167 O   0  0  0  0  0  0
  -23.9814   25.3693  -13.3462 C   0  0  0  0  0  0
  -22.6302   25.5850  -12.9489 O   0  0  0  0  0  0
  -22.3558   25.4430  -11.6183 C   0  0  0  0  0  0
  -23.0629   24.6141  -10.7556 C   0  0  0  0  0  0
  -22.4833   24.4038   -9.4558 C   0  0  0  0  0  0
  -21.3184   25.0768   -9.0204 C   0  0  0  0  0  0
  -20.7281   26.0098   -9.8558 C   0  0  0  0  0  0
  -21.2209   26.1531  -11.1573 C   0  0  0  0  0  0
  -24.3788   23.8855  -11.2415 C   0  0  0  0  0  0
  -25.3470   23.9661  -10.4845 O   0  0  0  0  0  0
  1  2  1  0  0  0
  2  3  1  0  0  0
  3  4  1  0  0  0
  4  5  2  0  0  0
  4 10  1  0  0  0
  5  6  1  0  0  0
  5 11  1  0  0  0
  6  7  2  0  0  0
  7  8  1  0  0  0
  7  9  1  0  0  0
  9 10  2  0  0  0
 11 12  2  0  0  0
 11 13  1  0  0  0
 13 14  1  0  0  0
 14 15  1  0  0  0
 14 25  1  0  0  0
 15 16  2  0  0  0
 15 17  1  0  0  0
 17 18  1  0  0  0
 18 19  1  0  0  0
 19 20  2  0  0  0
 19 24  1  0  0  0
 20 21  1  0  0  0
 20 25  1  0  0  0
 21 22  2  0  0  0
 22 23  1  0  0  0
 23 24  2  0  0  0
 25 26  2  0  0  0
M  END
>  <CHROM.0>
-56.23143495,-72.97885178,-127.50556660,62.09624574,-29.21392434,-178.00946604
-156.69306952,-159.36697019

>  <CHROM.1>
-176.87934292,64.30248010,15.80206515,31.68533565,73.27687295,-22.40292935
21.94537339,-12.84102781,1.37797505,0.42561504,-2.53945319

>  <Name>
F3323-0632

>  <RI>
2.02817e+07

>  <Rbt.Current_Directory>
/home/adria/Escritorio/rDock_CMTR_LC/2pxcA_model/inputs_sah

>  <Rbt.Executable>
rbdock ($Id: //depot/dev/client3/rdock/2013.1/src/exe/rbdock.cxx#4 $)

>  <Rbt.Library>
libRbt.so (2013.1, Build901 2013/11/27)

>  <Rbt.Parameter_File>
/home/adria/Escritorio/rDock_2013.1_src/data/scripts/dock.prm

>  <Rbt.Receptor>
sah_rdock.prm

>  <SCORE>
-63.3696

>  <SCORE.INTER>
-12.1398

>  <SCORE.INTER.CONST>
1

>  <SCORE.INTER.POLAR>
-0.816297

>  <SCORE.INTER.REPUL>
0.0847495

>  <SCORE.INTER.ROT>
5

>  <SCORE.INTER.VDW>
-20.1882

>  <SCORE.INTER.norm>
-0.466916

>  <SCORE.INTRA>
-44.0205

>  <SCORE.INTRA.DIHEDRAL>
1.71758

>  <SCORE.INTRA.DIHEDRAL.0>
6.2315

>  <SCORE.INTRA.POLAR>
0

>  <SCORE.INTRA.POLAR.0>
0

>  <SCORE.INTRA.REPUL>
0

>  <SCORE.INTRA.REPUL.0>
0

>  <SCORE.INTRA.VDW>
-44.8793

>  <SCORE.INTRA.VDW.0>
45.0177

>  <SCORE.INTRA.norm>
-1.69309

>  <SCORE.RESTR>
0

>  <SCORE.RESTR.CAVITY>
0

>  <SCORE.RESTR.norm>
0

>  <SCORE.SYSTEM>
-7.20931

>  <SCORE.SYSTEM.CONST>
0

>  <SCORE.SYSTEM.DIHEDRAL>
9.89029

>  <SCORE.SYSTEM.POLAR>
-4.62917

>  <SCORE.SYSTEM.REPUL>
0.0384977

>  <SCORE.SYSTEM.VDW>
3.39225

>  <SCORE.SYSTEM.norm>
-0.277281

>  <SCORE.heavy>
26

>  <SCORE.norm>
-2.43729

$$$$
F3323-0632
  rDOCK(R)          3D
libRbt.so/2013.1/901 2013/11/27
 26 28  0  0  0  0  0  0  0  0999 V2000
  -25.3637   24.0324   -9.7718 C   0  0  0  0  0  0
  -23.7158   23.9789   -9.9831 C   0  0  0  0  0  0
  -23.3573   25.0423  -10.7407 O   0  0  0  0  0  0
  -22.0380   24.7837  -10.8759 C   0  0  0  0  0  0
  -21.4124   23.6976  -11.5987 C   0  0  0  0  0  0
  -20.0442   23.6627  -11.3380 C   0  0  0  0  0  0
  -19.4283   24.6872  -10.5549 C   0  0  0  0  0  0
  -18.1265   24.5965  -10.2664 F   0  0  0  0  0  0
  -20.1012   25.7966  -10.0431 C   0  0  0  0  0  0
  -21.4400   25.8437  -10.2079 C   0  0  0  0  0  0
  -22.1128   22.5436  -12.6700 C   0  0  0  0  0  0
  -23.2906   22.8086  -12.9639 O   0  0  0  0  0  0
  -21.3760   21.0675  -13.5279 C   0  0  0  0  0  0
  -19.8779   20.4967  -14.1707 N   0  0  0  0  0  0
  -19.1380   21.4650  -14.8567 C   0  0  0  0  0  0
  -19.3478   22.6262  -14.7758 O   0  0  0  0  0  0
  -17.9308   20.8972  -15.6577 C   0  0  0  0  0  0
  -18.2271   19.9875  -16.7135 O   0  0  0  0  0  0
  -18.4203   18.6827  -16.3581 C   0  0  0  0  0  0
  -18.8947   18.2693  -15.1191 C   0  0  0  0  0  0
  -19.2670   16.8839  -15.0090 C   0  0  0  0  0  0
  -19.0686   15.9538  -16.0553 C   0  0  0  0  0  0
  -18.4529   16.3741  -17.2219 C   0  0  0  0  0  0
  -18.1754   17.7360  -17.3820 C   0  0  0  0  0  0
  -19.0894   19.3106  -13.9459 C   0  0  0  0  0  0
  -18.6267   18.9802  -12.8533 O   0  0  0  0  0  0
  1  2  1  0  0  0
  2  3  1  0  0  0
  3  4  1  0  0  0
  4  5  2  0  0  0
  4 10  1  0  0  0
  5  6  1  0  0  0
  5 11  1  0  0  0
  6  7  2  0  0  0
  7  8  1  0  0  0
  7  9  1  0  0  0
  9 10  2  0  0  0
 11 12  2  0  0  0
 11 13  1  0  0  0
 13 14  1  0  0  0
 14 15  1  0  0  0
 14 25  1  0  0  0
 15 16  2  0  0  0
 15 17  1  0  0  0
 17 18  1  0  0  0
 18 19  1  0  0  0
 19 20  2  0  0  0
 19 24  1  0  0  0
 20 21  1  0  0  0
 20 25  1  0  0  0
 21 22  2  0  0  0
 22 23  1  0  0  0
 23 24  2  0  0  0
 25 26  2  0  0  0
M  END
>  <CHROM.0>
-177.07034195,-74.88202539,-47.17665932,60.80386006,-29.93286101,-61.53563277
82.02527957,-163.87334342

>  <CHROM.1>
-176.12396118,67.56464953,9.41710777,-29.79910001,-40.63078225,-20.25975396
21.62343811,-13.20229603,1.96116080,0.20209872,0.61108794

>  <Name>
F3323-0632

>  <RI>
2.02817e+07

>  <Rbt.Current_Directory>
/home/adria/Escritorio/rDock_CMTR_LC/2pxcA_model/inputs_sah

>  <Rbt.Executable>
rbdock ($Id: //depot/dev/client3/rdock/2013.1/src/exe/rbdock.cxx#4 $)

>  <Rbt.Library>
libRbt.so (2013.1, Build901 2013/11/27)

>  <Rbt.Parameter_File>
/home/adria/Escritorio/rDock_2013.1_src/data/scripts/dock.prm

>  <Rbt.Receptor>
sah_rdock.prm

>  <SCORE>
-65.996

>  <SCORE.INTER>
-14.3008

>  <SCORE.INTER.CONST>
1

>  <SCORE.INTER.POLAR>
-0.87178

>  <SCORE.INTER.REPUL>
0.0876992

>  <SCORE.INTER.ROT>
5

>  <SCORE.INTER.VDW>
-22.1753

>  <SCORE.INTER.norm>
-0.550031

>  <SCORE.INTRA>
-44.5483

>  <SCORE.INTRA.DIHEDRAL>
1.41225

>  <SCORE.INTRA.DIHEDRAL.0>
6.2315

>  <SCORE.INTRA.POLAR>
0

>  <SCORE.INTRA.POLAR.0>
0

>  <SCORE.INTRA.REPUL>
0

>  <SCORE.INTRA.REPUL.0>
0

>  <SCORE.INTRA.VDW>
-45.2544

>  <SCORE.INTRA.VDW.0>
45.0177

>  <SCORE.INTRA.norm>
-1.7134

>  <SCORE.RESTR>
0

>  <SCORE.RESTR.CAVITY>
0

>  <SCORE.RESTR.norm>
0

>  <SCORE.SYSTEM>
-7.14688

>  <SCORE.SYSTEM.CONST>
0

>  <SCORE.SYSTEM.DIHEDRAL>
6.53373

>  <SCORE.SYSTEM.POLAR>
-3.97464

>  <SCORE.SYSTEM.REPUL>
0.0417218

>  <SCORE.SYSTEM.VDW>
2.89143

>  <SCORE.SYSTEM.norm>
-0.27488

>  <SCORE.heavy>
26

>  <SCORE.norm>
-2.53831

$$$$
F3323-0632
  rDOCK(R)          3D
libRbt.so/2013.1/901 2013/11/27
 26 28  0  0  0  0  0  0  0  0999 V2000
  -18.6882   15.4328  -15.6629 C   0  0  0  0  0  0
  -19.0670   17.0433  -15.5021 C   0  0  0  0  0  0
  -18.0788   17.6355  -14.7908 O   0  0  0  0  0  0
  -18.5428   18.9045  -14.7804 C   0  0  0  0  0  0
  -19.6630   19.4376  -14.0358 C   0  0  0  0  0  0
  -19.9435   20.7402  -14.4431 C   0  0  0  0  0  0
  -19.0948   21.4062  -15.3801 C   0  0  0  0  0  0
  -19.4211   22.6315  -15.8024 F   0  0  0  0  0  0
  -17.9286   20.8568  -15.9128 C   0  0  0  0  0  0
  -17.6479   19.5730  -15.6048 C   0  0  0  0  0  0
  -20.6043   18.7044  -12.7924 C   0  0  0  0  0  0
  -20.2105   17.5638  -12.4960 O   0  0  0  0  0  0
  -22.0056   19.3697  -11.7668 C   0  0  0  0  0  0
  -23.0152   20.7628  -11.6145 N   0  0  0  0  0  0
  -24.1918   20.7080  -12.3685 C   0  0  0  0  0  0
  -24.6186   19.7116  -12.8418 O   0  0  0  0  0  0
  -24.9651   22.0562  -12.4438 C   0  0  0  0  0  0
  -24.2972   23.1496  -13.0671 O   0  0  0  0  0  0
  -23.4274   23.8575  -12.2871 C   0  0  0  0  0  0
  -22.7355   23.3282  -11.2044 C   0  0  0  0  0  0
  -21.6856   24.1457  -10.6574 C   0  0  0  0  0  0
  -21.4264   25.4602  -11.1095 C   0  0  0  0  0  0
  -22.2377   26.0075  -12.0888 C   0  0  0  0  0  0
  -23.1977   25.1926  -12.6987 C   0  0  0  0  0  0
  -23.0489   21.8673  -10.6883 C   0  0  0  0  0  0
  -23.2047   21.7503   -9.4721 O   0  0  0  0  0  0
  1  2  1  0  0  0
  2  3  1  0  0  0
  3  4  1  0  0  0
  4  5  2  0  0  0
  4 10  1  0  0  0
  5  6  1  0  0  0
  5 11  1  0  0  0
  6  7  2  0  0  0
  7  8  1  0  0  0
  7  9  1  0  0  0
  9 10  2  0  0  0
 11 12  2  0  0  0
 11 13  1  0  0  0
 13 14  1  0  0  0
 14 15  1  0  0  0
 14 25  1  0  0  0
 15 16  2  0  0  0
 15 17  1  0  0  0
 17 18  1  0  0  0
 18 19  1  0  0  0
 19 20  2  0  0  0
 19 24  1  0  0  0
 20 21  1  0  0  0
 20 25  1  0  0  0
 21 22  2  0  0  0
 22 23  1  0  0  0
 23 24  2  0  0  0
 25 26  2  0  0  0
M  END
>  <CHROM.0>
-59.89652369,-74.39012247,-47.46781214,-145.36751414,-29.53784701,177.75423835
-156.23080151,-167.61149637

>  <CHROM.1>
179.25015420,72.43537437,2.06600873,5.69578692,90.17014187,-21.26360469,20.98580306
-13.16991253,0.75883807,-0.65156127,3.14015612

>  <Name>
F3323-0632

>  <RI>
2.02817e+07

>  <Rbt.Current_Directory>
/home/adria/Escritorio/rDock_CMTR_LC/2pxcA_model/inputs_sah

>  <Rbt.Executable>
rbdock ($Id: //depot/dev/client3/rdock/2013.1/src/exe/rbdock.cxx#4 $)

>  <Rbt.Library>
libRbt.so (2013.1, Build901 2013/11/27)

>  <Rbt.Parameter_File>
/home/adria/Escritorio/rDock_2013.1_src/data/scripts/dock.prm

>  <Rbt.Receptor>
sah_rdock.prm

>  <SCORE>
-58.8261

>  <SCORE.INTER>
-10.0165

>  <SCORE.INTER.CONST>
1

>  <SCORE.INTER.POLAR>
-0.757731

>  <SCORE.INTER.REPUL>
0.11743

>  <SCORE.INTER.ROT>
5

>  <SCORE.INTER.VDW>
-18.4274

>  <SCORE.INTER.norm>
-0.385251

>  <SCORE.INTRA>
-44.4435

>  <SCORE.INTRA.DIHEDRAL>
0.989299

>  <SCORE.INTRA.DIHEDRAL.0>
6.2315

>  <SCORE.INTRA.POLAR>
0

>  <SCORE.INTRA.POLAR.0>
0

>  <SCORE.INTRA.REPUL>
0

>  <SCORE.INTRA.REPUL.0>
0

>  <SCORE.INTRA.VDW>
-44.9382

>  <SCORE.INTRA.VDW.0>
45.0177

>  <SCORE.INTRA.norm>
-1.70937

>  <SCORE.RESTR>
0.014687

>  <SCORE.RESTR.CAVITY>
0.014687

>  <SCORE.RESTR.norm>
0.000564884

>  <SCORE.SYSTEM>
-4.38076

>  <SCORE.SYSTEM.CONST>
0

>  <SCORE.SYSTEM.DIHEDRAL>
10.9563

>  <SCORE.SYSTEM.POLAR>
-4.09998

>  <SCORE.SYSTEM.REPUL>
0.0409229

>  <SCORE.SYSTEM.VDW>
3.8764

>  <SCORE.SYSTEM.norm>
-0.168491

>  <SCORE.heavy>
26

>  <SCORE.norm>
-2.26254

$$$$
F3323-0632
  rDOCK(R)          3D
libRbt.so/2013.1/901 2013/11/27
 26 28  0  0  0  0  0  0  0  0999 V2000
  -24.8582   22.6296   -9.0643 C   0  0  0  0  0  0
  -23.3266   23.1632   -9.4282 C   0  0  0  0  0  0
  -23.3974   23.8883  -10.5694 O   0  0  0  0  0  0
  -22.1002   24.2483  -10.6843 C   0  0  0  0  0  0
  -20.9868   23.4386  -11.1298 C   0  0  0  0  0  0
  -19.7829   24.1081  -10.9210 C   0  0  0  0  0  0
  -19.7748   25.4567  -10.4488 C   0  0  0  0  0  0
  -18.6065   26.0545  -10.1965 F   0  0  0  0  0  0
  -20.9225   26.2131  -10.2114 C   0  0  0  0  0  0
  -22.1143   25.5910  -10.3317 C   0  0  0  0  0  0
  -20.9855   21.8703  -11.8442 C   0  0  0  0  0  0
  -22.1134   21.3499  -11.8712 O   0  0  0  0  0  0
  -19.6267   20.9025  -12.6656 C   0  0  0  0  0  0
  -19.3319   19.9072  -14.0462 N   0  0  0  0  0  0
  -19.9086   18.6353  -13.9743 C   0  0  0  0  0  0
  -20.7525   18.3434  -13.1986 O   0  0  0  0  0  0
  -19.4278   17.6529  -15.0812 C   0  0  0  0  0  0
  -18.0426   17.3197  -15.0913 O   0  0  0  0  0  0
  -17.2074   18.2032  -15.7142 C   0  0  0  0  0  0
  -17.4517   19.5665  -15.8283 C   0  0  0  0  0  0
  -16.3555   20.3737  -16.2937 C   0  0  0  0  0  0
  -15.1258   19.8205  -16.7194 C   0  0  0  0  0  0
  -14.9755   18.4443  -16.7327 C   0  0  0  0  0  0
  -15.9937   17.6520  -16.1915 C   0  0  0  0  0  0
  -18.8386   20.1741  -15.3745 C   0  0  0  0  0  0
  -19.3741   20.9434  -16.1735 O   0  0  0  0  0  0
  1  2  1  0  0  0
  2  3  1  0  0  0
  3  4  1  0  0  0
  4  5  2  0  0  0
  4 10  1  0  0  0
  5  6  1  0  0  0
  5 11  1  0  0  0
  6  7  2  0  0  0
  7  8  1  0  0  0
  7  9  1  0  0  0
  9 10  2  0  0  0
 11 12  2  0  0  0
 11 13  1  0  0  0
 13 14  1  0  0  0
 14 15  1  0  0  0
 14 25  1  0  0  0
 15 16  2  0  0  0
 15 17  1  0  0  0
 17 18  1  0  0  0
 18 19  1  0  0  0
 19 20  2  0  0  0
 19 24  1  0  0  0
 20 21  1  0  0  0
 20 25  1  0  0  0
 21 22  2  0  0  0
 22 23  1  0  0  0
 23 24  2  0  0  0
 25 26  2  0  0  0
M  END
>  <CHROM.0>
-59.75663512,67.19487677,-44.45380736,-59.53078998,168.10498259,63.40583638
-156.26468348,-48.33652691

>  <CHROM.1>
178.81840380,76.49728317,-6.02816286,-136.67248559,-72.56881935,-19.73341420
21.41319171,-13.00676314,2.18503535,0.48595185,0.46675573

>  <Name>
F3323-0632

>  <RI>
2.02817e+07

>  <Rbt.Current_Directory>
/home/adria/Escritorio/rDock_CMTR_LC/2pxcA_model/inputs_sah

>  <Rbt.Executable>
rbdock ($Id: //depot/dev/client3/rdock/2013.1/src/exe/rbdock.cxx#4 $)

>  <Rbt.Library>
libRbt.so (2013.1, Build901 2013/11/27)

>  <Rbt.Parameter_File>
/home/adria/Escritorio/rDock_2013.1_src/data/scripts/dock.prm

>  <Rbt.Receptor>
sah_rdock.prm

>  <SCORE>
-55.7367

>  <SCORE.INTER>
-12.4054

>  <SCORE.INTER.CONST>
1

>  <SCORE.INTER.POLAR>
0

>  <SCORE.INTER.REPUL>
0

>  <SCORE.INTER.ROT>
5

>  <SCORE.INTER.VDW>
-22.8054

>  <SCORE.INTER.norm>
-0.477132

>  <SCORE.INTRA>
-43.2568

>  <SCORE.INTRA.DIHEDRAL>
3.10844

>  <SCORE.INTRA.DIHEDRAL.0>
6.2315

>  <SCORE.INTRA.POLAR>
0

>  <SCORE.INTRA.POLAR.0>
0

>  <SCORE.INTRA.REPUL>
0

>  <SCORE.INTRA.REPUL.0>
0

>  <SCORE.INTRA.VDW>
-44.8111

>  <SCORE.INTRA.VDW.0>
45.0177

>  <SCORE.INTRA.norm>
-1.66372

>  <SCORE.RESTR>
0

>  <SCORE.RESTR.CAVITY>
0

>  <SCORE.RESTR.norm>
0

>  <SCORE.SYSTEM>
-0.074467

>  <SCORE.SYSTEM.CONST>
0

>  <SCORE.SYSTEM.DIHEDRAL>
5.41953

>  <SCORE.SYSTEM.POLAR>
-3.32402

>  <SCORE.SYSTEM.REPUL>
0.0160115

>  <SCORE.SYSTEM.VDW>
8.43738

>  <SCORE.SYSTEM.norm>
-0.00286412

>  <SCORE.heavy>
26

>  <SCORE.norm>
-2.14372

$$$$
F3323-0632
  rDOCK(R)          3D
libRbt.so/2013.1/901 2013/11/27
 26 28  0  0  0  0  0  0  0  0999 V2000
  -14.4040   20.6865  -16.6701 C   0  0  0  0  0  0
  -15.6593   19.6432  -16.3558 C   0  0  0  0  0  0
  -16.5530   19.7488  -17.3674 O   0  0  0  0  0  0
  -17.3612   18.7110  -17.0586 C   0  0  0  0  0  0
  -18.3215   18.6196  -15.9802 C   0  0  0  0  0  0
  -18.8142   17.3206  -15.8748 C   0  0  0  0  0  0
  -18.4517   16.3268  -16.8355 C   0  0  0  0  0  0
  -18.8868   15.0733  -16.6760 F   0  0  0  0  0  0
  -17.6462   16.5668  -17.9487 C   0  0  0  0  0  0
  -17.0870   17.7901  -18.0607 C   0  0  0  0  0  0
  -18.8877   19.8432  -14.9068 C   0  0  0  0  0  0
  -18.4118   20.9636  -15.1560 O   0  0  0  0  0  0
  -20.1516   19.7846  -13.5442 C   0  0  0  0  0  0
  -21.3710   20.7558  -12.8003 N   0  0  0  0  0  0
  -22.6389   20.6318  -13.3770 C   0  0  0  0  0  0
  -22.9413   19.7520  -14.1075 O   0  0  0  0  0  0
  -23.6684   21.6919  -12.8896 C   0  0  0  0  0  0
  -23.3749   23.0564  -13.1764 O   0  0  0  0  0  0
  -22.5281   23.6924  -12.3137 C   0  0  0  0  0  0
  -21.5403   23.0558  -11.5721 C   0  0  0  0  0  0
  -20.5898   23.9097  -10.9107 C   0  0  0  0  0  0
  -20.6985   25.3194  -10.9122 C   0  0  0  0  0  0
  -21.7836   25.9103  -11.5368 C   0  0  0  0  0  0
  -22.6611   25.1012  -12.2668 C   0  0  0  0  0  0
  -21.4410   21.4783  -11.5545 C   0  0  0  0  0  0
  -21.3224   20.9608  -10.4431 O   0  0  0  0  0  0
  1  2  1  0  0  0
  2  3  1  0  0  0
  3  4  1  0  0  0
  4  5  2  0  0  0
  4 10  1  0  0  0
  5  6  1  0  0  0
  5 11  1  0  0  0
  6  7  2  0  0  0
  7  8  1  0  0  0
  7  9  1  0  0  0
  9 10  2  0  0  0
 11 12  2  0  0  0
 11 13  1  0  0  0
 13 14  1  0  0  0
 14 15  1  0  0  0
 14 25  1  0  0  0
 15 16  2  0  0  0
 15 17  1  0  0  0
 17 18  1  0  0  0
 18 19  1  0  0  0
 19 20  2  0  0  0
 19 24  1  0  0  0
 20 21  1  0  0  0
 20 25  1  0  0  0
 21 22  2  0  0  0
 22 23  1  0  0  0
 23 24  2  0  0  0
 25 26  2  0  0  0
M  END
>  <CHROM.0>
-179.00216808,-71.23853696,109.01852469,65.75638725,167.88610504,-178.34399187
82.60303498,-161.72768558

>  <CHROM.1>
170.83742054,73.18755538,2.65991688,-145.02319382,89.59927923,-19.86835426
20.55469350,-14.28569286,-0.94526334,0.43349068,0.44538377

>  <Name>
F3323-0632

>  <RI>
2.02817e+07

>  <Rbt.Current_Directory>
/home/adria/Escritorio/rDock_CMTR_LC/2pxcA_model/inputs_sah

>  <Rbt.Executable>
rbdock ($Id: //depot/dev/client3/rdock/2013.1/src/exe/rbdock.cxx#4 $)

>  <Rbt.Library>
libRbt.so (2013.1, Build901 2013/11/27)

>  <Rbt.Parameter_File>
/home/adria/Escritorio/rDock_2013.1_src/data/scripts/dock.prm

>  <Rbt.Receptor>
sah_rdock.prm

>  <SCORE>
-57.7426

>  <SCORE.INTER>
-11.7915

>  <SCORE.INTER.CONST>
1

>  <SCORE.INTER.POLAR>
-0.831131

>  <SCORE.INTER.REPUL>
0.000349852

>  <SCORE.INTER.ROT>
5

>  <SCORE.INTER.VDW>
-19.3674

>  <SCORE.INTER.norm>
-0.45352

>  <SCORE.INTRA>
-43.9836

>  <SCORE.INTRA.DIHEDRAL>
1.56661

>  <SCORE.INTRA.DIHEDRAL.0>
6.2315

>  <SCORE.INTRA.POLAR>
0

>  <SCORE.INTRA.POLAR.0>
0

>  <SCORE.INTRA.REPUL>
0

>  <SCORE.INTRA.REPUL.0>
0

>  <SCORE.INTRA.VDW>
-44.7669

>  <SCORE.INTRA.VDW.0>
45.0177

>  <SCORE.INTRA.norm>
-1.69168

>  <SCORE.RESTR>
0

>  <SCORE.RESTR.CAVITY>
0

>  <SCORE.RESTR.norm>
0

>  <SCORE.SYSTEM>
-1.96752

>  <SCORE.SYSTEM.CONST>
0

>  <SCORE.SYSTEM.DIHEDRAL>
6.38253

>  <SCORE.SYSTEM.POLAR>
-4.41608

>  <SCORE.SYSTEM.REPUL>
0.0352394

>  <SCORE.SYSTEM.VDW>
9.67969

>  <SCORE.SYSTEM.norm>
-0.0756739

>  <SCORE.heavy>
26

>  <SCORE.norm>
-2.22087

$$$$
F3323-0632
  rDOCK(R)          3D
libRbt.so/2013.1/901 2013/11/27
 26 28  0  0  0  0  0  0  0  0999 V2000
  -23.8670   23.5116  -13.0686 C   0  0  0  0  0  0
  -23.6664   25.0417  -12.4508 C   0  0  0  0  0  0
  -22.5367   25.5627  -12.9852 O   0  0  0  0  0  0
  -21.6434   25.1535  -12.0577 C   0  0  0  0  0  0
  -20.9406   23.8904  -11.9938 C   0  0  0  0  0  0
  -20.2592   23.7722  -10.7842 C   0  0  0  0  0  0
  -20.2206   24.8642   -9.8634 C   0  0  0  0  0  0
  -19.6143   24.7036   -8.6832 F   0  0  0  0  0  0
  -20.7937   26.1134  -10.1013 C   0  0  0  0  0  0
  -21.5240   26.2594  -11.2269 C   0  0  0  0  0  0
  -20.8493   22.6239  -13.1589 C   0  0  0  0  0  0
  -21.0877   23.0117  -14.3150 O   0  0  0  0  0  0
  -20.3512   20.8404  -12.9891 C   0  0  0  0  0  0
  -20.6053   19.2987  -13.7255 N   0  0  0  0  0  0
  -21.0745   18.3124  -12.8522 C   0  0  0  0  0  0
  -21.5329   18.5470  -11.7874 O   0  0  0  0  0  0
  -21.0495   16.8728  -13.4423 C   0  0  0  0  0  0
  -19.7747   16.3397  -13.7899 O   0  0  0  0  0  0
  -19.2780   16.6944  -15.0120 C   0  0  0  0  0  0
  -19.5809   17.8818  -15.6672 C   0  0  0  0  0  0
  -18.7803   18.1956  -16.8207 C   0  0  0  0  0  0
  -17.8081   17.3099  -17.3400 C   0  0  0  0  0  0
  -17.6417   16.0700  -16.7468 C   0  0  0  0  0  0
  -18.3411   15.7901  -15.5679 C   0  0  0  0  0  0
  -20.6875   18.8547  -15.0948 C   0  0  0  0  0  0
  -21.5152   19.2640  -15.9099 O   0  0  0  0  0  0
  1  2  1  0  0  0
  2  3  1  0  0  0
  3  4  1  0  0  0
  4  5  2  0  0  0
  4 10  1  0  0  0
  5  6  1  0  0  0
  5 11  1  0  0  0
  6  7  2  0  0  0
  7  8  1  0  0  0
  7  9  1  0  0  0
  9 10  2  0  0  0
 11 12  2  0  0  0
 11 13  1  0  0  0
 13 14  1  0  0  0
 14 15  1  0  0  0
 14 25  1  0  0  0
 15 16  2  0  0  0
 15 17  1  0  0  0
 17 18  1  0  0  0
 18 19  1  0  0  0
 19 20  2  0  0  0
 19 24  1  0  0  0
 20 21  1  0  0  0
 20 25  1  0  0  0
 21 22  2  0  0  0
 22 23  1  0  0  0
 23 24  2  0  0  0
 25 26  2  0  0  0
M  END
>  <CHROM.0>
-56.65477958,-71.62156871,4.23806531,66.43573070,-29.99530148,64.97227230
-39.63752797,-159.19618420

>  <CHROM.1>
-90.33627226,86.37126752,22.62338626,153.82843829,-124.29781952,-20.62041110
21.00654211,-13.30037420,2.03008221,-1.02830018,0.88890382

>  <Name>
F3323-0632

>  <RI>
2.02817e+07

>  <Rbt.Current_Directory>
/home/adria/Escritorio/rDock_CMTR_LC/2pxcA_model/inputs_sah

>  <Rbt.Executable>
rbdock ($Id: //depot/dev/client3/rdock/2013.1/src/exe/rbdock.cxx#4 $)

>  <Rbt.Library>
libRbt.so (2013.1, Build901 2013/11/27)

>  <Rbt.Parameter_File>
/home/adria/Escritorio/rDock_2013.1_src/data/scripts/dock.prm

>  <Rbt.Receptor>
sah_rdock.prm

>  <SCORE>
-62.1538

>  <SCORE.INTER>
-16.365

>  <SCORE.INTER.CONST>
1

>  <SCORE.INTER.POLAR>
-1.61854

>  <SCORE.INTER.REPUL>
0

>  <SCORE.INTER.ROT>
5

>  <SCORE.INTER.VDW>
-21.262

>  <SCORE.INTER.norm>
-0.629424

>  <SCORE.INTRA>
-39.0836

>  <SCORE.INTRA.DIHEDRAL>
6.92668

>  <SCORE.INTRA.DIHEDRAL.0>
6.2315

>  <SCORE.INTRA.POLAR>
0

>  <SCORE.INTRA.POLAR.0>
0

>  <SCORE.INTRA.REPUL>
0

>  <SCORE.INTRA.REPUL.0>
0

>  <SCORE.INTRA.VDW>
-42.5469

>  <SCORE.INTRA.VDW.0>
45.0177

>  <SCORE.INTRA.norm>
-1.50321

>  <SCORE.RESTR>
0

>  <SCORE.RESTR.CAVITY>
0

>  <SCORE.RESTR.norm>
0

>  <SCORE.SYSTEM>
-6.70521

>  <SCORE.SYSTEM.CONST>
0

>  <SCORE.SYSTEM.DIHEDRAL>
9.65683

>  <SCORE.SYSTEM.POLAR>
-4.42315

>  <SCORE.SYSTEM.REPUL>
0.0359816

>  <SCORE.SYSTEM.VDW>
3.32519

>  <SCORE.SYSTEM.norm>
-0.257893

>  <SCORE.heavy>
26

>  <SCORE.norm>
-2.39053

$$$$
F3323-0632
  rDOCK(R)          3D
libRbt.so/2013.1/901 2013/11/27
 26 28  0  0  0  0  0  0  0  0999 V2000
  -14.0363   20.3889  -17.3031 C   0  0  0  0  0  0
  -14.6347   18.8383  -17.2791 C   0  0  0  0  0  0
  -14.7174   18.4029  -18.5584 O   0  0  0  0  0  0
  -15.5285   17.3374  -18.3782 C   0  0  0  0  0  0
  -16.8740   17.3217  -17.8463 C   0  0  0  0  0  0
  -17.2996   16.0118  -17.6356 C   0  0  0  0  0  0
  -16.4883   14.9100  -18.0474 C   0  0  0  0  0  0
  -16.8901   13.6645  -17.7767 F   0  0  0  0  0  0
  -15.2705   15.0373  -18.7154 C   0  0  0  0  0  0
  -14.7794   16.2833  -18.8832 C   0  0  0  0  0  0
  -17.9282   18.6364  -17.4860 C   0  0  0  0  0  0
  -17.4560   19.7386  -17.8114 O   0  0  0  0  0  0
  -19.6616   18.6643  -16.8133 C   0  0  0  0  0  0
  -20.5327   18.4570  -15.3362 N   0  0  0  0  0  0
  -21.8012   17.8885  -15.4894 C   0  0  0  0  0  0
  -22.1538   17.3328  -16.4721 O   0  0  0  0  0  0
  -22.6854   17.9465  -14.2102 C   0  0  0  0  0  0
  -23.0279   19.2398  -13.7202 O   0  0  0  0  0  0
  -22.0995   19.8589  -12.9322 C   0  0  0  0  0  0
  -20.7296   19.6412  -13.0154 C   0  0  0  0  0  0
  -19.8933   20.5554  -12.2840 C   0  0  0  0  0  0
  -20.4167   21.5584  -11.4359 C   0  0  0  0  0  0
  -21.7876   21.6453  -11.2625 C   0  0  0  0  0  0
  -22.6163   20.8300  -12.0409 C   0  0  0  0  0  0
  -20.1531   18.5008  -13.9459 C   0  0  0  0  0  0
  -19.3115   17.7633  -13.4315 O   0  0  0  0  0  0
  1  2  1  0  0  0
  2  3  1  0  0  0
  3  4  1  0  0  0
  4  5  2  0  0  0
  4 10  1  0  0  0
  5  6  1  0  0  0
  5 11  1  0  0  0
  6  7  2  0  0  0
  7  8  1  0  0  0
  7  9  1  0  0  0
  9 10  2  0  0  0
 11 12  2  0  0  0
 11 13  1  0  0  0
 13 14  1  0  0  0
 14 15  1  0  0  0
 14 25  1  0  0  0
 15 16  2  0  0  0
 15 17  1  0  0  0
 17 18  1  0  0  0
 18 19  1  0  0  0
 19 20  2  0  0  0
 19 24  1  0  0  0
 20 21  1  0  0  0
 20 25  1  0  0  0
 21 22  2  0  0  0
 22 23  1  0  0  0
 23 24  2  0  0  0
 25 26  2  0  0  0
M  END
>  <CHROM.0>
-62.24881542,-72.33238918,110.77218323,64.14165770,-29.78481014,-177.18405363
-36.21613835,-161.49813349

>  <CHROM.1>
-164.22255391,60.03834519,4.29731090,75.90060468,-146.75424665,-18.76547847
18.27465795,-15.75103573,-0.68173879,0.42764637,0.56892292

>  <Name>
F3323-0632

>  <RI>
2.02817e+07

>  <Rbt.Current_Directory>
/home/adria/Escritorio/rDock_CMTR_LC/2pxcA_model/inputs_sah

>  <Rbt.Executable>
rbdock ($Id: //depot/dev/client3/rdock/2013.1/src/exe/rbdock.cxx#4 $)

>  <Rbt.Library>
libRbt.so (2013.1, Build901 2013/11/27)

>  <Rbt.Parameter_File>
/home/adria/Escritorio/rDock_2013.1_src/data/scripts/dock.prm

>  <Rbt.Receptor>
sah_rdock.prm

>  <SCORE>
-64.4049

>  <SCORE.INTER>
-13.1311

>  <SCORE.INTER.CONST>
1

>  <SCORE.INTER.POLAR>
-1.38919

>  <SCORE.INTER.REPUL>
0.16478

>  <SCORE.INTER.ROT>
5

>  <SCORE.INTER.VDW>
-19.6317

>  <SCORE.INTER.norm>
-0.505042

>  <SCORE.INTRA>
-43.8176

>  <SCORE.INTRA.DIHEDRAL>
1.4244

>  <SCORE.INTRA.DIHEDRAL.0>
6.2315

>  <SCORE.INTRA.POLAR>
0

>  <SCORE.INTRA.POLAR.0>
0

>  <SCORE.INTRA.REPUL>
0

>  <SCORE.INTRA.REPUL.0>
0

>  <SCORE.INTRA.VDW>
-44.5298

>  <SCORE.INTRA.VDW.0>
45.0177

>  <SCORE.INTRA.norm>
-1.68529

>  <SCORE.RESTR>
0

>  <SCORE.RESTR.CAVITY>
0

>  <SCORE.RESTR.norm>
0

>  <SCORE.SYSTEM>
-7.45622

>  <SCORE.SYSTEM.CONST>
0

>  <SCORE.SYSTEM.DIHEDRAL>
9.59611

>  <SCORE.SYSTEM.POLAR>
-4.64333

>  <SCORE.SYSTEM.REPUL>
0.0373216

>  <SCORE.SYSTEM.VDW>
3.34643

>  <SCORE.SYSTEM.norm>
-0.286778

>  <SCORE.heavy>
26

>  <SCORE.norm>
-2.47711

$$$$
