F0772-2487
  rDOCK(R)          3D
libRbt.so/2013.1/901 2013/11/27
 36 39  0  0  0  0  0  0  0  0999 V2000
  -23.8299   20.7710   -9.3844 C   0  0  0  0  0  0
  -24.1174   19.9098  -10.6162 C   0  0  0  0  0  0
  -23.1248   19.1323  -11.3805 C   0  0  0  0  0  0
  -23.2005   18.6784  -12.7952 C   0  0  0  0  0  0
  -21.5888   18.4121  -13.4637 N   0  0  0  0  0  0
  -20.3457   19.0144  -12.6888 C   0  0  0  0  0  0
  -19.9702   20.8908  -12.5298 C   0  0  0  0  0  0
  -21.4514   22.3218  -13.2600 N   0  0  0  0  0  0
  -21.8699   23.9214  -12.7064 C   0  0  0  0  0  0
  -22.1629   24.6320  -13.6851 O   0  0  0  0  0  0
  -21.7773   24.7227  -11.1797 C   0  0  0  0  0  0
  -21.1687   25.9012  -10.6931 C   0  0  0  0  0  0
  -21.5019   26.1403   -9.2903 C   0  0  0  0  0  0
  -22.2449   25.0721   -8.9151 C   0  0  0  0  0  0
  -22.2600   24.1987   -9.9657 O   0  0  0  0  0  0
  -19.3607   18.1397  -13.0325 N   0  0  0  0  0  0
  -19.5744   17.6268  -14.3217 N   0  0  0  0  0  0
  -20.6978   18.1418  -14.8320 C   0  0  0  0  0  0
  -20.1973   19.0919  -16.6975 S   0  0  0  0  0  0
  -18.2305   18.9832  -17.5779 C   0  0  0  0  0  0
  -16.9101   18.9230  -16.6702 C   0  0  0  0  0  0
  -16.4472   19.9289  -16.1215 O   0  0  0  0  0  0
  -16.4381   17.6909  -16.2274 N   0  0  0  0  0  0
  -16.9609   16.5293  -16.7526 C   0  0  0  0  0  0
  -16.7561   16.3832  -18.5018 C   0  0  0  0  0  0
  -17.6805   14.9724  -19.3931 C   0  0  0  0  0  0
  -18.6804   13.8801  -18.3957 C   0  0  0  0  0  0
  -19.8334   13.5286  -18.9595 F   0  0  0  0  0  0
  -18.6941   14.0645  -16.6805 C   0  0  0  0  0  0
  -17.8576   15.3580  -15.8854 C   0  0  0  0  0  0
  -24.5920   18.9134  -13.2741 C   0  0  0  0  0  0
  -25.4095   18.7879  -14.5685 C   0  0  0  0  0  0
  -25.6051   19.5532  -12.3755 C   0  0  0  0  0  0
  -25.3787   20.0696  -11.1220 C   0  0  0  0  0  0
  -21.8159   22.3042  -14.1861 H   0  0  0  0  0  0
  -15.7705   17.6687  -15.4572 H   0  0  0  0  0  0
  1  2  1  0  0  0
  2  3  2  0  0  0
  2 34  1  0  0  0
  3  4  1  0  0  0
  4  5  1  0  0  0
  4 31  2  0  0  0
  5  6  1  0  0  0
  5 18  1  0  0  0
  6  7  1  0  0  0
  6 16  2  0  0  0
  7  8  1  0  0  0
  8  9  1  0  0  0
  8 35  1  0  0  0
  9 10  2  0  0  0
  9 11  1  0  0  0
 11 12  2  0  0  0
 11 15  1  0  0  0
 12 13  1  0  0  0
 13 14  2  0  0  0
 14 15  1  0  0  0
 16 17  1  0  0  0
 17 18  2  0  0  0
 18 19  1  0  0  0
 19 20  1  0  0  0
 20 21  1  0  0  0
 21 22  2  0  0  0
 21 23  1  0  0  0
 23 24  1  0  0  0
 23 36  1  0  0  0
 24 25  2  0  0  0
 24 30  1  0  0  0
 25 26  1  0  0  0
 26 27  2  0  0  0
 27 28  1  0  0  0
 27 29  1  0  0  0
 29 30  2  0  0  0
 31 32  1  0  0  0
 31 33  1  0  0  0
 33 34  2  0  0  0
M  END
>  <CHROM.0>
176.77444492,67.20369663,-44.52684323,60.21495050,-31.78421323,-57.02039058
-36.27159020,-158.72367778

>  <CHROM.1>
-15.48568783,7.25242819,147.95478812,123.14198100,141.26802548,-33.23376963
-77.49418410,59.56289278,-20.72233072,19.51240352,-14.09094747,2.06182646
0.47275698,0.50380665

>  <Name>
F0772-2487

>  <RI>
2.80968e+07

>  <Rbt.Current_Directory>
/home/adria/Escritorio/rDock_CMTR_LC/2pxcA_model/inputs_sah

>  <Rbt.Executable>
rbdock ($Id: //depot/dev/client3/rdock/2013.1/src/exe/rbdock.cxx#4 $)

>  <Rbt.Library>
libRbt.so (2013.1, Build901 2013/11/27)

>  <Rbt.Parameter_File>
/home/adria/Escritorio/rDock_2013.1_src/data/scripts/dock.prm

>  <Rbt.Receptor>
sah_rdock.prm

>  <SCORE>
-264.868

>  <SCORE.INTER>
-16.751

>  <SCORE.INTER.CONST>
1

>  <SCORE.INTER.POLAR>
-1.47908

>  <SCORE.INTER.REPUL>
0.0187553

>  <SCORE.INTER.ROT>
8

>  <SCORE.INTER.VDW>
-25.2159

>  <SCORE.INTER.norm>
-0.492677

>  <SCORE.INTRA>
-241.468

>  <SCORE.INTRA.DIHEDRAL>
9.4828

>  <SCORE.INTRA.DIHEDRAL.0>
13.3319

>  <SCORE.INTRA.POLAR>
0

>  <SCORE.INTRA.POLAR.0>
0

>  <SCORE.INTRA.REPUL>
0

>  <SCORE.INTRA.REPUL.0>
0

>  <SCORE.INTRA.VDW>
-246.21

>  <SCORE.INTRA.VDW.0>
242.971

>  <SCORE.INTRA.norm>
-7.10201

>  <SCORE.RESTR>
0

>  <SCORE.RESTR.CAVITY>
0

>  <SCORE.RESTR.norm>
0

>  <SCORE.SYSTEM>
-6.64861

>  <SCORE.SYSTEM.CONST>
0

>  <SCORE.SYSTEM.DIHEDRAL>
6.00154

>  <SCORE.SYSTEM.POLAR>
-3.66985

>  <SCORE.SYSTEM.VDW>
2.82812

>  <SCORE.SYSTEM.norm>
-0.195547

>  <SCORE.heavy>
34

>  <SCORE.norm>
-7.79023

$$$$
F0772-2487
  rDOCK(R)          3D
libRbt.so/2013.1/901 2013/11/27
 36 39  0  0  0  0  0  0  0  0999 V2000
  -27.1033   19.5556  -13.4088 C   0  0  0  0  0  0
  -25.9211   20.0704  -12.5847 C   0  0  0  0  0  0
  -24.4944   19.8553  -12.8882 C   0  0  0  0  0  0
  -23.3378   19.8891  -11.9532 C   0  0  0  0  0  0
  -21.9896   18.9354  -12.5760 N   0  0  0  0  0  0
  -20.5180   19.3705  -12.1842 C   0  0  0  0  0  0
  -19.6625   20.9782  -12.7929 C   0  0  0  0  0  0
  -20.0363   22.8391  -11.7103 N   0  0  0  0  0  0
  -21.5270   23.6239  -11.2606 C   0  0  0  0  0  0
  -21.3858   24.1708  -10.1517 O   0  0  0  0  0  0
  -23.1234   23.6294  -11.9184 C   0  0  0  0  0  0
  -23.7121   23.2441  -13.1436 C   0  0  0  0  0  0
  -25.1650   23.4003  -13.1164 C   0  0  0  0  0  0
  -25.4403   23.9473  -11.9086 C   0  0  0  0  0  0
  -24.2457   24.2135  -11.3014 O   0  0  0  0  0  0
  -19.8608   18.1790  -12.2288 N   0  0  0  0  0  0
  -20.4218   17.3341  -13.1993 N   0  0  0  0  0  0
  -21.4526   17.9471  -13.7902 C   0  0  0  0  0  0
  -21.0701   17.9829  -15.9082 S   0  0  0  0  0  0
  -19.1484   17.4975  -16.7607 C   0  0  0  0  0  0
  -17.7852   18.0380  -16.1123 C   0  0  0  0  0  0
  -17.7684   18.9888  -15.3230 O   0  0  0  0  0  0
  -16.6364   17.2554  -16.1797 N   0  0  0  0  0  0
  -16.6136   16.1425  -16.9918 C   0  0  0  0  0  0
  -15.6334   14.8167  -16.3558 C   0  0  0  0  0  0
  -15.2826   13.3357  -17.5059 C   0  0  0  0  0  0
  -15.9840   13.3798  -19.1472 C   0  0  0  0  0  0
  -15.1771   12.9156  -20.0982 F   0  0  0  0  0  0
  -17.0234   14.6815  -19.5960 C   0  0  0  0  0  0
  -17.3244   16.0259  -18.5440 C   0  0  0  0  0  0
  -23.8178   20.4453  -10.6565 C   0  0  0  0  0  0
  -23.2829   20.7170   -9.2424 C   0  0  0  0  0  0
  -25.2590   20.8098  -10.4751 C   0  0  0  0  0  0
  -26.2776   20.5966  -11.3729 C   0  0  0  0  0  0
  -19.3714   23.2568  -11.0986 H   0  0  0  0  0  0
  -15.8571   17.4724  -15.5591 H   0  0  0  0  0  0
  1  2  1  0  0  0
  2  3  2  0  0  0
  2 34  1  0  0  0
  3  4  1  0  0  0
  4  5  1  0  0  0
  4 31  2  0  0  0
  5  6  1  0  0  0
  5 18  1  0  0  0
  6  7  1  0  0  0
  6 16  2  0  0  0
  7  8  1  0  0  0
  8  9  1  0  0  0
  8 35  1  0  0  0
  9 10  2  0  0  0
  9 11  1  0  0  0
 11 12  2  0  0  0
 11 15  1  0  0  0
 12 13  1  0  0  0
 13 14  2  0  0  0
 14 15  1  0  0  0
 16 17  1  0  0  0
 17 18  2  0  0  0
 18 19  1  0  0  0
 19 20  1  0  0  0
 20 21  1  0  0  0
 21 22  2  0  0  0
 21 23  1  0  0  0
 23 24  1  0  0  0
 23 36  1  0  0  0
 24 25  2  0  0  0
 24 30  1  0  0  0
 25 26  1  0  0  0
 26 27  2  0  0  0
 27 28  1  0  0  0
 27 29  1  0  0  0
 29 30  2  0  0  0
 31 32  1  0  0  0
 31 33  1  0  0  0
 33 34  2  0  0  0
M  END
>  <CHROM.0>
-60.12339635,-167.20264172,110.34305068,-61.17532140,-30.39829321,-176.09378957
-156.90734733,-161.66631752

>  <CHROM.1>
150.29228444,84.14971037,-52.64885130,-15.29182577,123.39434733,-42.91408138
-17.77579769,-146.46975012,-20.92027187,19.19749502,-13.99789298,2.24305813
0.10852049,0.64499983

>  <Name>
F0772-2487

>  <RI>
2.80968e+07

>  <Rbt.Current_Directory>
/home/adria/Escritorio/rDock_CMTR_LC/2pxcA_model/inputs_sah

>  <Rbt.Executable>
rbdock ($Id: //depot/dev/client3/rdock/2013.1/src/exe/rbdock.cxx#4 $)

>  <Rbt.Library>
libRbt.so (2013.1, Build901 2013/11/27)

>  <Rbt.Parameter_File>
/home/adria/Escritorio/rDock_2013.1_src/data/scripts/dock.prm

>  <Rbt.Receptor>
sah_rdock.prm

>  <SCORE>
-264.565

>  <SCORE.INTER>
-10.5448

>  <SCORE.INTER.CONST>
1

>  <SCORE.INTER.POLAR>
-1.37409

>  <SCORE.INTER.REPUL>
0.0670754

>  <SCORE.INTER.ROT>
8

>  <SCORE.INTER.VDW>
-19.6083

>  <SCORE.INTER.norm>
-0.310142

>  <SCORE.INTRA>
-247.869

>  <SCORE.INTRA.DIHEDRAL>
-0.0424125

>  <SCORE.INTRA.DIHEDRAL.0>
13.3319

>  <SCORE.INTRA.POLAR>
0

>  <SCORE.INTRA.POLAR.0>
0

>  <SCORE.INTRA.REPUL>
0

>  <SCORE.INTRA.REPUL.0>
0

>  <SCORE.INTRA.VDW>
-247.848

>  <SCORE.INTRA.VDW.0>
242.971

>  <SCORE.INTRA.norm>
-7.29026

>  <SCORE.RESTR>
0

>  <SCORE.RESTR.CAVITY>
0

>  <SCORE.RESTR.norm>
0

>  <SCORE.SYSTEM>
-6.15172

>  <SCORE.SYSTEM.CONST>
0

>  <SCORE.SYSTEM.DIHEDRAL>
9.36079

>  <SCORE.SYSTEM.POLAR>
-4.34902

>  <SCORE.SYSTEM.VDW>
3.95455

>  <SCORE.SYSTEM.norm>
-0.180933

>  <SCORE.heavy>
34

>  <SCORE.norm>
-7.78133

$$$$
F0772-2487
  rDOCK(R)          3D
libRbt.so/2013.1/901 2013/11/27
 36 39  0  0  0  0  0  0  0  0999 V2000
  -23.7146   22.5554   -8.6139 C   0  0  0  0  0  0
  -23.8674   21.0641   -8.9210 C   0  0  0  0  0  0
  -22.8850   20.2193   -9.6247 C   0  0  0  0  0  0
  -23.1225   18.9508  -10.3647 C   0  0  0  0  0  0
  -21.8653   18.6753  -11.5725 N   0  0  0  0  0  0
  -20.9542   19.8982  -12.0001 C   0  0  0  0  0  0
  -21.5750   21.4202  -12.9927 C   0  0  0  0  0  0
  -22.5826   23.0335  -11.9169 N   0  0  0  0  0  0
  -21.9819   24.5495  -11.2998 C   0  0  0  0  0  0
  -22.8635   25.4200  -11.4177 O   0  0  0  0  0  0
  -20.4332   25.0967  -10.7676 C   0  0  0  0  0  0
  -19.2580   24.4825  -10.2798 C   0  0  0  0  0  0
  -18.1928   25.4579  -10.0565 C   0  0  0  0  0  0
  -18.7485   26.6606  -10.3368 C   0  0  0  0  0  0
  -20.0737   26.4462  -10.5914 O   0  0  0  0  0  0
  -19.8001   19.2678  -12.3525 N   0  0  0  0  0  0
  -20.0665   17.9948  -12.8809 N   0  0  0  0  0  0
  -21.3842   17.7685  -12.8707 C   0  0  0  0  0  0
  -21.9879   17.3084  -14.8850 S   0  0  0  0  0  0
  -20.7621   17.7476  -16.6054 C   0  0  0  0  0  0
  -19.5770   18.8252  -16.5348 C   0  0  0  0  0  0
  -19.7778   19.9970  -16.1974 O   0  0  0  0  0  0
  -18.2545   18.3919  -16.5486 N   0  0  0  0  0  0
  -17.9681   17.0789  -16.8528 C   0  0  0  0  0  0
  -16.9170   16.8869  -18.2603 C   0  0  0  0  0  0
  -16.6772   15.1288  -18.9610 C   0  0  0  0  0  0
  -17.5193   13.7883  -18.1354 C   0  0  0  0  0  0
  -18.0256   12.8728  -18.9579 F   0  0  0  0  0  0
  -18.4182   14.1028  -16.6968 C   0  0  0  0  0  0
  -18.6363   15.7073  -16.0780 C   0  0  0  0  0  0
  -24.5123   18.5036  -10.0658 C   0  0  0  0  0  0
  -25.4856   17.3890  -10.4779 C   0  0  0  0  0  0
  -25.4037   19.3315   -9.1922 C   0  0  0  0  0  0
  -25.1209   20.5733   -8.6754 C   0  0  0  0  0  0
  -23.5661   23.1819  -11.9537 H   0  0  0  0  0  0
  -17.5234   19.0362  -16.2488 H   0  0  0  0  0  0
  1  2  1  0  0  0
  2  3  2  0  0  0
  2 34  1  0  0  0
  3  4  1  0  0  0
  4  5  1  0  0  0
  4 31  2  0  0  0
  5  6  1  0  0  0
  5 18  1  0  0  0
  6  7  1  0  0  0
  6 16  2  0  0  0
  7  8  1  0  0  0
  8  9  1  0  0  0
  8 35  1  0  0  0
  9 10  2  0  0  0
  9 11  1  0  0  0
 11 12  2  0  0  0
 11 15  1  0  0  0
 12 13  1  0  0  0
 13 14  2  0  0  0
 14 15  1  0  0  0
 16 17  1  0  0  0
 17 18  2  0  0  0
 18 19  1  0  0  0
 19 20  1  0  0  0
 20 21  1  0  0  0
 21 22  2  0  0  0
 21 23  1  0  0  0
 23 24  1  0  0  0
 23 36  1  0  0  0
 24 25  2  0  0  0
 24 30  1  0  0  0
 25 26  1  0  0  0
 26 27  2  0  0  0
 27 28  1  0  0  0
 27 29  1  0  0  0
 29 30  2  0  0  0
 31 32  1  0  0  0
 31 33  1  0  0  0
 33 34  2  0  0  0
M  END
>  <CHROM.0>
-171.23310866,69.56109785,-163.09141350,67.38818372,169.10737742,173.13647059
-37.80403809,-160.01576898

>  <CHROM.1>
-16.80803911,82.09870999,96.90524205,-22.61936786,119.13121453,-19.41314558
-57.11112274,120.80288175,-20.86995612,19.68361558,-13.13209982,2.00042157
0.68927046,0.46620612

>  <Name>
F0772-2487

>  <RI>
2.80968e+07

>  <Rbt.Current_Directory>
/home/adria/Escritorio/rDock_CMTR_LC/2pxcA_model/inputs_sah

>  <Rbt.Executable>
rbdock ($Id: //depot/dev/client3/rdock/2013.1/src/exe/rbdock.cxx#4 $)

>  <Rbt.Library>
libRbt.so (2013.1, Build901 2013/11/27)

>  <Rbt.Parameter_File>
/home/adria/Escritorio/rDock_2013.1_src/data/scripts/dock.prm

>  <Rbt.Receptor>
sah_rdock.prm

>  <SCORE>
-261.284

>  <SCORE.INTER>
-17.3524

>  <SCORE.INTER.CONST>
1

>  <SCORE.INTER.POLAR>
-2.08344

>  <SCORE.INTER.REPUL>
0.0173094

>  <SCORE.INTER.ROT>
8

>  <SCORE.INTER.VDW>
-23.7553

>  <SCORE.INTER.norm>
-0.510366

>  <SCORE.INTRA>
-242.73

>  <SCORE.INTRA.DIHEDRAL>
6.43333

>  <SCORE.INTRA.DIHEDRAL.0>
13.3319

>  <SCORE.INTRA.POLAR>
0

>  <SCORE.INTRA.POLAR.0>
0

>  <SCORE.INTRA.REPUL>
0

>  <SCORE.INTRA.REPUL.0>
0

>  <SCORE.INTRA.VDW>
-245.946

>  <SCORE.INTRA.VDW.0>
242.971

>  <SCORE.INTRA.norm>
-7.13911

>  <SCORE.RESTR>
0.0296675

>  <SCORE.RESTR.CAVITY>
0.0296675

>  <SCORE.RESTR.norm>
0.000872573

>  <SCORE.SYSTEM>
-1.23192

>  <SCORE.SYSTEM.CONST>
0

>  <SCORE.SYSTEM.DIHEDRAL>
4.07122

>  <SCORE.SYSTEM.POLAR>
-3.52357

>  <SCORE.SYSTEM.VDW>
8.71262

>  <SCORE.SYSTEM.norm>
-0.0362328

>  <SCORE.heavy>
34

>  <SCORE.norm>
-7.68484

$$$$
F0772-2487
  rDOCK(R)          3D
libRbt.so/2013.1/901 2013/11/27
 36 39  0  0  0  0  0  0  0  0999 V2000
  -26.4990   22.2291  -17.0924 C   0  0  0  0  0  0
  -25.7373   20.9033  -17.0295 C   0  0  0  0  0  0
  -25.6072   20.0344  -15.8454 C   0  0  0  0  0  0
  -24.5500   19.0300  -15.5510 C   0  0  0  0  0  0
  -24.4054   18.7509  -13.8142 N   0  0  0  0  0  0
  -25.0750   19.7937  -12.8279 C   0  0  0  0  0  0
  -24.4743   21.6017  -12.5879 C   0  0  0  0  0  0
  -25.1572   22.7089  -10.8321 N   0  0  0  0  0  0
  -24.4833   24.0959  -10.0182 C   0  0  0  0  0  0
  -25.4076   24.8156   -9.5981 O   0  0  0  0  0  0
  -22.8858   24.7309   -9.8572 C   0  0  0  0  0  0
  -21.5783   24.2430  -10.0771 C   0  0  0  0  0  0
  -20.5713   25.2771   -9.8475 C   0  0  0  0  0  0
  -21.2646   26.3585   -9.4193 C   0  0  0  0  0  0
  -22.5695   25.9769   -9.2837 O   0  0  0  0  0  0
  -25.3531   19.0096  -11.7503 N   0  0  0  0  0  0
  -24.4018   17.9859  -11.6175 N   0  0  0  0  0  0
  -23.5027   18.0744  -12.6031 C   0  0  0  0  0  0
  -21.5539   18.2333  -11.7030 S   0  0  0  0  0  0
  -19.8464   19.0480  -12.7403 C   0  0  0  0  0  0
  -19.8623   20.5361  -13.3372 C   0  0  0  0  0  0
  -20.2887   21.4969  -12.6874 O   0  0  0  0  0  0
  -19.1125   20.8272  -14.4730 N   0  0  0  0  0  0
  -18.5539   19.8023  -15.2050 C   0  0  0  0  0  0
  -17.0667   20.2555  -16.0451 C   0  0  0  0  0  0
  -16.3510   19.0267  -17.3168 C   0  0  0  0  0  0
  -17.2243   17.4889  -17.5620 C   0  0  0  0  0  0
  -17.2798   17.0889  -18.8300 F   0  0  0  0  0  0
  -18.5985   17.1231  -16.5852 C   0  0  0  0  0  0
  -19.2438   18.2542  -15.4410 C   0  0  0  0  0  0
  -23.7467   18.8385  -16.7916 C   0  0  0  0  0  0
  -22.5019   18.0699  -17.2598 C   0  0  0  0  0  0
  -24.0506   19.6362  -18.0221 C   0  0  0  0  0  0
  -24.9696   20.6522  -18.1340 C   0  0  0  0  0  0
  -26.1014   22.7028  -10.5172 H   0  0  0  0  0  0
  -18.9180   21.8028  -14.6964 H   0  0  0  0  0  0
  1  2  1  0  0  0
  2  3  2  0  0  0
  2 34  1  0  0  0
  3  4  1  0  0  0
  4  5  1  0  0  0
  4 31  2  0  0  0
  5  6  1  0  0  0
  5 18  1  0  0  0
  6  7  1  0  0  0
  6 16  2  0  0  0
  7  8  1  0  0  0
  8  9  1  0  0  0
  8 35  1  0  0  0
  9 10  2  0  0  0
  9 11  1  0  0  0
 11 12  2  0  0  0
 11 15  1  0  0  0
 12 13  1  0  0  0
 13 14  2  0  0  0
 14 15  1  0  0  0
 16 17  1  0  0  0
 17 18  2  0  0  0
 18 19  1  0  0  0
 19 20  1  0  0  0
 20 21  1  0  0  0
 21 22  2  0  0  0
 21 23  1  0  0  0
 23 24  1  0  0  0
 23 36  1  0  0  0
 24 25  2  0  0  0
 24 30  1  0  0  0
 25 26  1  0  0  0
 26 27  2  0  0  0
 27 28  1  0  0  0
 27 29  1  0  0  0
 29 30  2  0  0  0
 31 32  1  0  0  0
 31 33  1  0  0  0
 33 34  2  0  0  0
M  END
>  <CHROM.0>
176.58144656,-75.56360575,-47.89007043,64.29693438,168.46918583,-64.37707041
82.56516988,-116.33730038

>  <CHROM.1>
-15.36473080,-163.76263267,157.95323895,-15.48594584,-23.21105722,58.00409308
45.40384917,-151.00954027,-22.12366932,20.57085687,-13.78786732,2.02207633
-0.04499576,0.88532092

>  <Name>
F0772-2487

>  <RI>
2.80968e+07

>  <Rbt.Current_Directory>
/home/adria/Escritorio/rDock_CMTR_LC/2pxcA_model/inputs_sah

>  <Rbt.Executable>
rbdock ($Id: //depot/dev/client3/rdock/2013.1/src/exe/rbdock.cxx#4 $)

>  <Rbt.Library>
libRbt.so (2013.1, Build901 2013/11/27)

>  <Rbt.Parameter_File>
/home/adria/Escritorio/rDock_2013.1_src/data/scripts/dock.prm

>  <Rbt.Receptor>
sah_rdock.prm

>  <SCORE>
-263.31

>  <SCORE.INTER>
-16.6165

>  <SCORE.INTER.CONST>
1

>  <SCORE.INTER.POLAR>
-1.06377

>  <SCORE.INTER.REPUL>
0.0675675

>  <SCORE.INTER.ROT>
8

>  <SCORE.INTER.VDW>
-26.7375

>  <SCORE.INTER.norm>
-0.488721

>  <SCORE.INTRA>
-246.918

>  <SCORE.INTRA.DIHEDRAL>
-5.35655

>  <SCORE.INTRA.DIHEDRAL.0>
13.3319

>  <SCORE.INTRA.POLAR>
0

>  <SCORE.INTRA.POLAR.0>
0

>  <SCORE.INTRA.REPUL>
0

>  <SCORE.INTRA.REPUL.0>
0

>  <SCORE.INTRA.VDW>
-244.24

>  <SCORE.INTRA.VDW.0>
242.971

>  <SCORE.INTRA.norm>
-7.2623

>  <SCORE.RESTR>
0

>  <SCORE.RESTR.CAVITY>
0

>  <SCORE.RESTR.norm>
0

>  <SCORE.SYSTEM>
0.224233

>  <SCORE.SYSTEM.CONST>
0

>  <SCORE.SYSTEM.DIHEDRAL>
7.28464

>  <SCORE.SYSTEM.POLAR>
-3.52782

>  <SCORE.SYSTEM.REPUL>
0.0427886

>  <SCORE.SYSTEM.VDW>
8.36256

>  <SCORE.SYSTEM.norm>
0.0065951

>  <SCORE.heavy>
34

>  <SCORE.norm>
-7.74442

$$$$
F0772-2487
  rDOCK(R)          3D
libRbt.so/2013.1/901 2013/11/27
 36 39  0  0  0  0  0  0  0  0999 V2000
  -27.0852   19.4940  -11.3669 C   0  0  0  0  0  0
  -25.8932   18.7671  -11.9936 C   0  0  0  0  0  0
  -24.4703   19.0661  -11.7492 C   0  0  0  0  0  0
  -23.3027   18.7673  -12.6214 C   0  0  0  0  0  0
  -21.9622   19.8654  -12.2861 N   0  0  0  0  0  0
  -22.2992   21.3442  -11.8298 C   0  0  0  0  0  0
  -23.1050   22.6720  -12.9588 C   0  0  0  0  0  0
  -23.1544   24.7448  -12.2687 N   0  0  0  0  0  0
  -21.8763   25.8096  -11.7465 C   0  0  0  0  0  0
  -22.1321   26.9707  -12.1141 O   0  0  0  0  0  0
  -20.3246   25.5579  -11.0321 C   0  0  0  0  0  0
  -19.3735   26.3677  -10.3720 C   0  0  0  0  0  0
  -18.2397   25.5824   -9.8884 C   0  0  0  0  0  0
  -18.4719   24.3204  -10.3212 C   0  0  0  0  0  0
  -19.5904   24.3592  -11.1050 O   0  0  0  0  0  0
  -21.2100   21.6503  -11.0725 N   0  0  0  0  0  0
  -20.0654   20.9957  -11.5544 N   0  0  0  0  0  0
  -20.3860   20.2481  -12.6155 C   0  0  0  0  0  0
  -19.1403   20.8687  -14.2575 S   0  0  0  0  0  0
  -17.9506   19.4887  -15.4132 C   0  0  0  0  0  0
  -16.8905   20.0050  -16.4997 C   0  0  0  0  0  0
  -16.4721   21.1678  -16.5041 O   0  0  0  0  0  0
  -16.1857   19.0795  -17.2636 N   0  0  0  0  0  0
  -16.5616   17.7540  -17.2505 C   0  0  0  0  0  0
  -15.2102   16.6287  -17.4256 C   0  0  0  0  0  0
  -15.6151   14.7866  -17.7121 C   0  0  0  0  0  0
  -17.3370   14.3179  -17.7674 C   0  0  0  0  0  0
  -17.6244   13.4041  -18.6912 F   0  0  0  0  0  0
  -18.5536   15.5018  -17.4599 C   0  0  0  0  0  0
  -18.1711   17.1742  -17.2118 C   0  0  0  0  0  0
  -23.7672   17.8581  -13.7071 C   0  0  0  0  0  0
  -23.2156   17.1909  -14.9760 C   0  0  0  0  0  0
  -25.2061   17.4515  -13.7915 C   0  0  0  0  0  0
  -26.2353   17.9116  -13.0052 C   0  0  0  0  0  0
  -23.8936   25.3745  -12.4872 H   0  0  0  0  0  0
  -15.3469   19.3858  -17.7557 H   0  0  0  0  0  0
  1  2  1  0  0  0
  2  3  2  0  0  0
  2 34  1  0  0  0
  3  4  1  0  0  0
  4  5  1  0  0  0
  4 31  2  0  0  0
  5  6  1  0  0  0
  5 18  1  0  0  0
  6  7  1  0  0  0
  6 16  2  0  0  0
  7  8  1  0  0  0
  8  9  1  0  0  0
  8 35  1  0  0  0
  9 10  2  0  0  0
  9 11  1  0  0  0
 11 12  2  0  0  0
 11 15  1  0  0  0
 12 13  1  0  0  0
 13 14  2  0  0  0
 14 15  1  0  0  0
 16 17  1  0  0  0
 17 18  2  0  0  0
 18 19  1  0  0  0
 19 20  1  0  0  0
 20 21  1  0  0  0
 21 22  2  0  0  0
 21 23  1  0  0  0
 23 24  1  0  0  0
 23 36  1  0  0  0
 24 25  2  0  0  0
 24 30  1  0  0  0
 25 26  1  0  0  0
 26 27  2  0  0  0
 27 28  1  0  0  0
 27 29  1  0  0  0
 29 30  2  0  0  0
 31 32  1  0  0  0
 31 33  1  0  0  0
 33 34  2  0  0  0
M  END
>  <CHROM.0>
-59.66041445,-69.82709512,-168.08622983,65.25904975,167.30416558,174.46674120
81.50143650,-153.41258968

>  <CHROM.1>
-32.37193268,-168.91189492,55.26292300,-165.46977211,-97.03446929,-171.83105494
17.80604216,-146.83340899,-20.41977659,20.23742339,-13.82607774,2.04719178
0.35906609,0.49399596

>  <Name>
F0772-2487

>  <RI>
2.80968e+07

>  <Rbt.Current_Directory>
/home/adria/Escritorio/rDock_CMTR_LC/2pxcA_model/inputs_sah

>  <Rbt.Executable>
rbdock ($Id: //depot/dev/client3/rdock/2013.1/src/exe/rbdock.cxx#4 $)

>  <Rbt.Library>
libRbt.so (2013.1, Build901 2013/11/27)

>  <Rbt.Parameter_File>
/home/adria/Escritorio/rDock_2013.1_src/data/scripts/dock.prm

>  <Rbt.Receptor>
sah_rdock.prm

>  <SCORE>
-257.415

>  <SCORE.INTER>
-11.5059

>  <SCORE.INTER.CONST>
1

>  <SCORE.INTER.POLAR>
-1.25165

>  <SCORE.INTER.REPUL>
0.193892

>  <SCORE.INTER.ROT>
8

>  <SCORE.INTER.VDW>
-21.6198

>  <SCORE.INTER.norm>
-0.338409

>  <SCORE.INTRA>
-243.767

>  <SCORE.INTRA.DIHEDRAL>
1.80362

>  <SCORE.INTRA.DIHEDRAL.0>
13.3319

>  <SCORE.INTRA.POLAR>
0

>  <SCORE.INTRA.POLAR.0>
0

>  <SCORE.INTRA.REPUL>
0

>  <SCORE.INTRA.REPUL.0>
0

>  <SCORE.INTRA.VDW>
-244.669

>  <SCORE.INTRA.VDW.0>
242.971

>  <SCORE.INTRA.norm>
-7.16963

>  <SCORE.RESTR>
0

>  <SCORE.RESTR.CAVITY>
0

>  <SCORE.RESTR.norm>
0

>  <SCORE.SYSTEM>
-2.14152

>  <SCORE.SYSTEM.CONST>
0

>  <SCORE.SYSTEM.DIHEDRAL>
3.76988

>  <SCORE.SYSTEM.POLAR>
-3.76076

>  <SCORE.SYSTEM.REPUL>
0.0323842

>  <SCORE.SYSTEM.VDW>
8.5982

>  <SCORE.SYSTEM.norm>
-0.0629858

>  <SCORE.heavy>
34

>  <SCORE.norm>
-7.57102

$$$$
F0772-2487
  rDOCK(R)          3D
libRbt.so/2013.1/901 2013/11/27
 36 39  0  0  0  0  0  0  0  0999 V2000
  -18.5158   14.7152  -15.9108 C   0  0  0  0  0  0
  -18.3104   16.2129  -16.1481 C   0  0  0  0  0  0
  -18.4437   17.2767  -15.1359 C   0  0  0  0  0  0
  -18.7290   18.7211  -15.3489 C   0  0  0  0  0  0
  -19.4600   19.4424  -13.9135 N   0  0  0  0  0  0
  -20.5996   18.6360  -13.1655 C   0  0  0  0  0  0
  -22.3470   18.3021  -13.8883 C   0  0  0  0  0  0
  -22.5165   17.6793  -15.9760 N   0  0  0  0  0  0
  -23.1831   18.4956  -17.3650 C   0  0  0  0  0  0
  -22.5097   18.2107  -18.3720 O   0  0  0  0  0  0
  -24.4012   19.7011  -17.5753 C   0  0  0  0  0  0
  -24.9787   20.3719  -18.6766 C   0  0  0  0  0  0
  -26.0613   21.2606  -18.2593 C   0  0  0  0  0  0
  -26.0843   21.1813  -16.9076 C   0  0  0  0  0  0
  -25.0264   20.4042  -16.5283 O   0  0  0  0  0  0
  -20.4545   19.0816  -11.8873 N   0  0  0  0  0  0
  -20.0020   20.4104  -11.8690 N   0  0  0  0  0  0
  -19.8327   20.8470  -13.1213 C   0  0  0  0  0  0
  -21.0281   22.6202  -13.3667 S   0  0  0  0  0  0
  -20.9701   24.2739  -11.9820 C   0  0  0  0  0  0
  -22.0653   25.4440  -12.0305 C   0  0  0  0  0  0
  -21.7460   26.6369  -12.0795 O   0  0  0  0  0  0
  -23.3877   25.1333  -12.3330 N   0  0  0  0  0  0
  -23.7919   23.8164  -12.3599 C   0  0  0  0  0  0
  -24.9172   23.4434  -13.6704 C   0  0  0  0  0  0
  -25.7749   21.7394  -13.6515 C   0  0  0  0  0  0
  -25.3696   20.6251  -12.3167 C   0  0  0  0  0  0
  -26.4080   19.9416  -11.8420 F   0  0  0  0  0  0
  -24.1609   21.0720  -11.1696 C   0  0  0  0  0  0
  -23.3978   22.6283  -11.1932 C   0  0  0  0  0  0
  -18.6043   18.9987  -16.8078 C   0  0  0  0  0  0
  -18.8048   20.1647  -17.7876 C   0  0  0  0  0  0
  -18.2903   17.8914  -17.7661 C   0  0  0  0  0  0
  -18.1893   16.5534  -17.4678 C   0  0  0  0  0  0
  -21.9378   16.9803  -16.3848 H   0  0  0  0  0  0
  -24.0169   25.8847  -12.6140 H   0  0  0  0  0  0
  1  2  1  0  0  0
  2  3  2  0  0  0
  2 34  1  0  0  0
  3  4  1  0  0  0
  4  5  1  0  0  0
  4 31  2  0  0  0
  5  6  1  0  0  0
  5 18  1  0  0  0
  6  7  1  0  0  0
  6 16  2  0  0  0
  7  8  1  0  0  0
  8  9  1  0  0  0
  8 35  1  0  0  0
  9 10  2  0  0  0
  9 11  1  0  0  0
 11 12  2  0  0  0
 11 15  1  0  0  0
 12 13  1  0  0  0
 13 14  2  0  0  0
 14 15  1  0  0  0
 16 17  1  0  0  0
 17 18  2  0  0  0
 18 19  1  0  0  0
 19 20  1  0  0  0
 20 21  1  0  0  0
 21 22  2  0  0  0
 21 23  1  0  0  0
 23 24  1  0  0  0
 23 36  1  0  0  0
 24 25  2  0  0  0
 24 30  1  0  0  0
 25 26  1  0  0  0
 26 27  2  0  0  0
 27 28  1  0  0  0
 27 29  1  0  0  0
 29 30  2  0  0  0
 31 32  1  0  0  0
 31 33  1  0  0  0
 33 34  2  0  0  0
M  END
>  <CHROM.0>
40.29474641,-71.47361680,-163.77303832,-63.03064452,30.15750173,-55.62673500
-37.48233911,-172.66031569

>  <CHROM.1>
-43.63911820,43.88103103,-112.31119210,-179.01419207,-174.30477324,-167.96391652
-127.96189213,-140.53507565,-22.02333090,20.45028223,-14.57291698,-1.00675507
-0.33371158,0.79336333

>  <Name>
F0772-2487

>  <RI>
2.80968e+07

>  <Rbt.Current_Directory>
/home/adria/Escritorio/rDock_CMTR_LC/2pxcA_model/inputs_sah

>  <Rbt.Executable>
rbdock ($Id: //depot/dev/client3/rdock/2013.1/src/exe/rbdock.cxx#4 $)

>  <Rbt.Library>
libRbt.so (2013.1, Build901 2013/11/27)

>  <Rbt.Parameter_File>
/home/adria/Escritorio/rDock_2013.1_src/data/scripts/dock.prm

>  <Rbt.Receptor>
sah_rdock.prm

>  <SCORE>
-254.369

>  <SCORE.INTER>
-18.2996

>  <SCORE.INTER.CONST>
1

>  <SCORE.INTER.POLAR>
-1.95649

>  <SCORE.INTER.REPUL>
0.111204

>  <SCORE.INTER.ROT>
8

>  <SCORE.INTER.VDW>
-25.6036

>  <SCORE.INTER.norm>
-0.538225

>  <SCORE.INTRA>
-245.268

>  <SCORE.INTRA.DIHEDRAL>
2.5738

>  <SCORE.INTRA.DIHEDRAL.0>
13.3319

>  <SCORE.INTRA.POLAR>
0

>  <SCORE.INTRA.POLAR.0>
0

>  <SCORE.INTRA.REPUL>
0

>  <SCORE.INTRA.REPUL.0>
0

>  <SCORE.INTRA.VDW>
-246.555

>  <SCORE.INTRA.VDW.0>
242.971

>  <SCORE.INTRA.norm>
-7.21376

>  <SCORE.RESTR>
0

>  <SCORE.RESTR.CAVITY>
0

>  <SCORE.RESTR.norm>
0

>  <SCORE.SYSTEM>
9.19802

>  <SCORE.SYSTEM.CONST>
0

>  <SCORE.SYSTEM.DIHEDRAL>
7.84738

>  <SCORE.SYSTEM.POLAR>
-3.54678

>  <SCORE.SYSTEM.REPUL>
0.157907

>  <SCORE.SYSTEM.VDW>
16.5439

>  <SCORE.SYSTEM.norm>
0.27053

>  <SCORE.heavy>
34

>  <SCORE.norm>
-7.48145

$$$$
F0772-2487
  rDOCK(R)          3D
libRbt.so/2013.1/901 2013/11/27
 36 39  0  0  0  0  0  0  0  0999 V2000
  -25.1515   20.8472  -13.4499 C   0  0  0  0  0  0
  -24.4628   19.7770  -14.2998 C   0  0  0  0  0  0
  -23.0950   19.2627  -14.1035 C   0  0  0  0  0  0
  -22.2011   18.6168  -15.1020 C   0  0  0  0  0  0
  -20.5056   18.7939  -14.6447 N   0  0  0  0  0  0
  -20.0987   20.0222  -13.7312 C   0  0  0  0  0  0
  -20.1382   21.8566  -14.2972 C   0  0  0  0  0  0
  -20.0597   23.4246  -12.7772 N   0  0  0  0  0  0
  -21.2898   24.0509  -11.7120 C   0  0  0  0  0  0
  -20.7754   24.3455  -10.6178 O   0  0  0  0  0  0
  -23.0109   24.1566  -11.8013 C   0  0  0  0  0  0
  -23.9743   24.0945  -12.8328 C   0  0  0  0  0  0
  -25.3352   24.1635  -12.3044 C   0  0  0  0  0  0
  -25.1890   24.3418  -10.9700 C   0  0  0  0  0  0
  -23.8532   24.4905  -10.7240 O   0  0  0  0  0  0
  -19.0150   19.5254  -13.0738 N   0  0  0  0  0  0
  -18.3166   18.6119  -13.8791 N   0  0  0  0  0  0
  -18.9328   18.4872  -15.0591 C   0  0  0  0  0  0
  -17.5042   18.9552  -16.5996 S   0  0  0  0  0  0
  -16.7757   17.4909  -18.0069 C   0  0  0  0  0  0
  -15.2057   17.2642  -18.2405 C   0  0  0  0  0  0
  -14.3919   18.1907  -18.1592 O   0  0  0  0  0  0
  -14.6907   15.9713  -18.2309 N   0  0  0  0  0  0
  -15.5485   14.8933  -18.2534 C   0  0  0  0  0  0
  -16.7610   14.9746  -19.5364 C   0  0  0  0  0  0
  -18.1811   13.7012  -19.5033 C   0  0  0  0  0  0
  -18.1814   12.4978  -18.1843 C   0  0  0  0  0  0
  -19.3870   12.2341  -17.6864 F   0  0  0  0  0  0
  -16.8679   12.4571  -17.0665 C   0  0  0  0  0  0
  -15.5899   13.6276  -17.1025 C   0  0  0  0  0  0
  -23.0136   18.3220  -16.3160 C   0  0  0  0  0  0
  -22.8199   17.7613  -17.7329 C   0  0  0  0  0  0
  -24.4563   18.7194  -16.3775 C   0  0  0  0  0  0
  -25.1458   19.4500  -15.4394 C   0  0  0  0  0  0
  -19.2153   23.7162  -12.3382 H   0  0  0  0  0  0
  -13.6852   15.8440  -18.1210 H   0  0  0  0  0  0
  1  2  1  0  0  0
  2  3  2  0  0  0
  2 34  1  0  0  0
  3  4  1  0  0  0
  4  5  1  0  0  0
  4 31  2  0  0  0
  5  6  1  0  0  0
  5 18  1  0  0  0
  6  7  1  0  0  0
  6 16  2  0  0  0
  7  8  1  0  0  0
  8  9  1  0  0  0
  8 35  1  0  0  0
  9 10  2  0  0  0
  9 11  1  0  0  0
 11 12  2  0  0  0
 11 15  1  0  0  0
 12 13  1  0  0  0
 13 14  2  0  0  0
 14 15  1  0  0  0
 16 17  1  0  0  0
 17 18  2  0  0  0
 18 19  1  0  0  0
 19 20  1  0  0  0
 20 21  1  0  0  0
 21 22  2  0  0  0
 21 23  1  0  0  0
 23 24  1  0  0  0
 23 36  1  0  0  0
 24 25  2  0  0  0
 24 30  1  0  0  0
 25 26  1  0  0  0
 26 27  2  0  0  0
 27 28  1  0  0  0
 27 29  1  0  0  0
 29 30  2  0  0  0
 31 32  1  0  0  0
 31 33  1  0  0  0
 33 34  2  0  0  0
M  END
>  <CHROM.0>
-59.73344531,68.75527257,-167.41712521,-64.38833788,28.34363338,60.47132354
81.24322737,-158.44411226

>  <CHROM.1>
-25.75322297,163.99065753,-77.97678975,-18.92006695,-110.96032870,-127.90618105
-33.24732429,50.83778999,-20.14936568,18.97477615,-15.27518919,2.16142630
0.09110740,0.54825034

>  <Name>
F0772-2487

>  <RI>
2.80968e+07

>  <Rbt.Current_Directory>
/home/adria/Escritorio/rDock_CMTR_LC/2pxcA_model/inputs_sah

>  <Rbt.Executable>
rbdock ($Id: //depot/dev/client3/rdock/2013.1/src/exe/rbdock.cxx#4 $)

>  <Rbt.Library>
libRbt.so (2013.1, Build901 2013/11/27)

>  <Rbt.Parameter_File>
/home/adria/Escritorio/rDock_2013.1_src/data/scripts/dock.prm

>  <Rbt.Receptor>
sah_rdock.prm

>  <SCORE>
-249.697

>  <SCORE.INTER>
-13.3528

>  <SCORE.INTER.CONST>
1

>  <SCORE.INTER.POLAR>
-0.979942

>  <SCORE.INTER.REPUL>
0.0647993

>  <SCORE.INTER.ROT>
8

>  <SCORE.INTER.VDW>
-23.745

>  <SCORE.INTER.norm>
-0.392729

>  <SCORE.INTRA>
-241.509

>  <SCORE.INTRA.DIHEDRAL>
5.86398

>  <SCORE.INTRA.DIHEDRAL.0>
13.3319

>  <SCORE.INTRA.POLAR>
0

>  <SCORE.INTRA.POLAR.0>
0

>  <SCORE.INTRA.REPUL>
0

>  <SCORE.INTRA.REPUL.0>
0

>  <SCORE.INTRA.VDW>
-244.441

>  <SCORE.INTRA.VDW.0>
242.971

>  <SCORE.INTRA.norm>
-7.10321

>  <SCORE.RESTR>
0

>  <SCORE.RESTR.CAVITY>
0

>  <SCORE.RESTR.norm>
0

>  <SCORE.SYSTEM>
5.16531

>  <SCORE.SYSTEM.CONST>
0

>  <SCORE.SYSTEM.DIHEDRAL>
6.40729

>  <SCORE.SYSTEM.POLAR>
-3.34136

>  <SCORE.SYSTEM.VDW>
13.3223

>  <SCORE.SYSTEM.norm>
0.151921

>  <SCORE.heavy>
34

>  <SCORE.norm>
-7.34402

$$$$
F0772-2487
  rDOCK(R)          3D
libRbt.so/2013.1/901 2013/11/27
 36 39  0  0  0  0  0  0  0  0999 V2000
  -26.2558   23.7947   -9.0604 C   0  0  0  0  0  0
  -26.5354   22.9337  -10.2941 C   0  0  0  0  0  0
  -26.3344   21.4767  -10.3973 C   0  0  0  0  0  0
  -26.1219   20.6600  -11.6225 C   0  0  0  0  0  0
  -25.2714   19.1600  -11.2462 N   0  0  0  0  0  0
  -24.6354   18.9989   -9.8046 C   0  0  0  0  0  0
  -23.1367   20.0112   -9.1595 C   0  0  0  0  0  0
  -21.5627   20.5679  -10.5693 N   0  0  0  0  0  0
  -21.2134   22.0837  -11.3572 C   0  0  0  0  0  0
  -19.9807   22.2171  -11.4644 O   0  0  0  0  0  0
  -22.1728   23.4438  -11.8165 C   0  0  0  0  0  0
  -23.5553   23.7231  -11.8978 C   0  0  0  0  0  0
  -23.8032   25.1113  -12.2818 C   0  0  0  0  0  0
  -22.5774   25.6424  -12.5033 C   0  0  0  0  0  0
  -21.6681   24.6297  -12.3824 O   0  0  0  0  0  0
  -24.6807   17.6487   -9.6364 N   0  0  0  0  0  0
  -24.5365   16.9861  -10.8656 N   0  0  0  0  0  0
  -24.4092   17.8825  -11.8494 C   0  0  0  0  0  0
  -22.5671   17.4674  -12.8827 S   0  0  0  0  0  0
  -21.8611   18.6521  -14.5420 C   0  0  0  0  0  0
  -22.1988   18.2533  -16.0579 C   0  0  0  0  0  0
  -23.3614   18.1235  -16.4564 O   0  0  0  0  0  0
  -21.2073   18.3508  -17.0296 N   0  0  0  0  0  0
  -19.8989   18.5618  -16.6530 C   0  0  0  0  0  0
  -19.6119   20.1509  -15.9350 C   0  0  0  0  0  0
  -17.8039   20.6811  -15.6361 C   0  0  0  0  0  0
  -16.5189   19.5265  -16.0872 C   0  0  0  0  0  0
  -15.4502   20.0900  -16.6451 F   0  0  0  0  0  0
  -16.9458   17.9588  -16.6672 C   0  0  0  0  0  0
  -18.5930   17.4950  -16.9438 C   0  0  0  0  0  0
  -26.4062   21.5265  -12.8012 C   0  0  0  0  0  0
  -26.3477   21.4542  -14.3345 C   0  0  0  0  0  0
  -26.7797   22.9645  -12.6125 C   0  0  0  0  0  0
  -26.8038   23.6560  -11.4249 C   0  0  0  0  0  0
  -20.7044   20.0708  -10.6520 H   0  0  0  0  0  0
  -21.4804   18.3490  -18.0119 H   0  0  0  0  0  0
  1  2  1  0  0  0
  2  3  2  0  0  0
  2 34  1  0  0  0
  3  4  1  0  0  0
  4  5  1  0  0  0
  4 31  2  0  0  0
  5  6  1  0  0  0
  5 18  1  0  0  0
  6  7  1  0  0  0
  6 16  2  0  0  0
  7  8  1  0  0  0
  8  9  1  0  0  0
  8 35  1  0  0  0
  9 10  2  0  0  0
  9 11  1  0  0  0
 11 12  2  0  0  0
 11 15  1  0  0  0
 12 13  1  0  0  0
 13 14  2  0  0  0
 14 15  1  0  0  0
 16 17  1  0  0  0
 17 18  2  0  0  0
 18 19  1  0  0  0
 19 20  1  0  0  0
 20 21  1  0  0  0
 21 22  2  0  0  0
 21 23  1  0  0  0
 23 24  1  0  0  0
 23 36  1  0  0  0
 24 25  2  0  0  0
 24 30  1  0  0  0
 25 26  1  0  0  0
 26 27  2  0  0  0
 27 28  1  0  0  0
 27 29  1  0  0  0
 29 30  2  0  0  0
 31 32  1  0  0  0
 31 33  1  0  0  0
 33 34  2  0  0  0
M  END
>  <CHROM.0>
40.21491527,-166.14996323,-164.65571221,66.58784587,-30.22752983,66.60541837
-36.12871643,-161.15856172

>  <CHROM.1>
-10.81994535,-34.64823010,102.89062188,-11.29427243,-43.12680646,-93.04964138
57.07243642,-67.41392320,-22.58203821,20.51836942,-13.00116117,-2.66065304
-0.55236200,-2.88935250

>  <Name>
F0772-2487

>  <RI>
2.80968e+07

>  <Rbt.Current_Directory>
/home/adria/Escritorio/rDock_CMTR_LC/2pxcA_model/inputs_sah

>  <Rbt.Executable>
rbdock ($Id: //depot/dev/client3/rdock/2013.1/src/exe/rbdock.cxx#4 $)

>  <Rbt.Library>
libRbt.so (2013.1, Build901 2013/11/27)

>  <Rbt.Parameter_File>
/home/adria/Escritorio/rDock_2013.1_src/data/scripts/dock.prm

>  <Rbt.Receptor>
sah_rdock.prm

>  <SCORE>
-253.802

>  <SCORE.INTER>
-8.37047

>  <SCORE.INTER.CONST>
1

>  <SCORE.INTER.POLAR>
-1.47616

>  <SCORE.INTER.REPUL>
0.985679

>  <SCORE.INTER.ROT>
8

>  <SCORE.INTER.VDW>
-21.6799

>  <SCORE.INTER.norm>
-0.24619

>  <SCORE.INTRA>
-243.67

>  <SCORE.INTRA.DIHEDRAL>
5.69138

>  <SCORE.INTRA.DIHEDRAL.0>
13.3319

>  <SCORE.INTRA.POLAR>
0

>  <SCORE.INTRA.POLAR.0>
0

>  <SCORE.INTRA.REPUL>
0

>  <SCORE.INTRA.REPUL.0>
0

>  <SCORE.INTRA.VDW>
-246.516

>  <SCORE.INTRA.VDW.0>
242.971

>  <SCORE.INTRA.norm>
-7.16677

>  <SCORE.RESTR>
0

>  <SCORE.RESTR.CAVITY>
0

>  <SCORE.RESTR.norm>
0

>  <SCORE.SYSTEM>
-1.7613

>  <SCORE.SYSTEM.CONST>
0

>  <SCORE.SYSTEM.DIHEDRAL>
8.83028

>  <SCORE.SYSTEM.POLAR>
-3.61876

>  <SCORE.SYSTEM.REPUL>
0.122478

>  <SCORE.SYSTEM.VDW>
5.51496

>  <SCORE.SYSTEM.norm>
-0.0518031

>  <SCORE.heavy>
34

>  <SCORE.norm>
-7.46476

$$$$
F0772-2487
  rDOCK(R)          3D
libRbt.so/2013.1/901 2013/11/27
 36 39  0  0  0  0  0  0  0  0999 V2000
  -26.1671   20.1678  -14.2338 C   0  0  0  0  0  0
  -25.0915   19.3089  -14.9025 C   0  0  0  0  0  0
  -23.6365   19.4262  -14.6953 C   0  0  0  0  0  0
  -22.5387   18.9988  -15.6038 C   0  0  0  0  0  0
  -21.0641   19.9178  -15.2942 N   0  0  0  0  0  0
  -19.6801   19.2885  -15.7381 C   0  0  0  0  0  0
  -18.8837   17.7382  -14.9321 C   0  0  0  0  0  0
  -17.1956   16.7835  -15.9389 N   0  0  0  0  0  0
  -15.6072   17.3848  -16.3335 C   0  0  0  0  0  0
  -14.7787   16.4630  -16.2211 O   0  0  0  0  0  0
  -14.9647   18.9573  -16.6428 C   0  0  0  0  0  0
  -15.3618   20.2837  -16.3617 C   0  0  0  0  0  0
  -14.3587   21.2515  -16.8013 C   0  0  0  0  0  0
  -13.3992   20.5157  -17.4109 C   0  0  0  0  0  0
  -13.8397   19.2228  -17.4462 O   0  0  0  0  0  0
  -18.9361   20.4044  -15.9722 N   0  0  0  0  0  0
  -19.3240   21.4519  -15.1219 N   0  0  0  0  0  0
  -20.3264   21.0471  -14.3351 C   0  0  0  0  0  0
  -19.7183   21.3422  -12.2915 S   0  0  0  0  0  0
  -20.5426   22.8904  -11.0350 C   0  0  0  0  0  0
  -19.9518   24.3809  -11.0478 C   0  0  0  0  0  0
  -18.7403   24.6033  -11.1484 O   0  0  0  0  0  0
  -20.8092   25.4564  -11.2602 N   0  0  0  0  0  0
  -22.1727   25.2612  -11.2267 C   0  0  0  0  0  0
  -22.7694   24.6693   -9.6722 C   0  0  0  0  0  0
  -24.5831   24.0854   -9.5770 C   0  0  0  0  0  0
  -25.5646   24.1919  -11.0646 C   0  0  0  0  0  0
  -26.3799   23.1576  -11.2558 F   0  0  0  0  0  0
  -24.8889   24.9039  -12.4833 C   0  0  0  0  0  0
  -23.2358   25.4202  -12.5581 C   0  0  0  0  0  0
  -23.1411   18.1701  -16.6862 C   0  0  0  0  0  0
  -22.7106   17.4590  -17.9779 C   0  0  0  0  0  0
  -24.6211   17.9455  -16.7342 C   0  0  0  0  0  0
  -25.5639   18.5173  -15.9137 C   0  0  0  0  0  0
  -17.0792   15.7963  -15.9904 H   0  0  0  0  0  0
  -20.4109   26.3577  -11.5223 H   0  0  0  0  0  0
  1  2  1  0  0  0
  2  3  2  0  0  0
  2 34  1  0  0  0
  3  4  1  0  0  0
  4  5  1  0  0  0
  4 31  2  0  0  0
  5  6  1  0  0  0
  5 18  1  0  0  0
  6  7  1  0  0  0
  6 16  2  0  0  0
  7  8  1  0  0  0
  8  9  1  0  0  0
  8 35  1  0  0  0
  9 10  2  0  0  0
  9 11  1  0  0  0
 11 12  2  0  0  0
 11 15  1  0  0  0
 12 13  1  0  0  0
 13 14  2  0  0  0
 14 15  1  0  0  0
 16 17  1  0  0  0
 17 18  2  0  0  0
 18 19  1  0  0  0
 19 20  1  0  0  0
 20 21  1  0  0  0
 21 22  2  0  0  0
 21 23  1  0  0  0
 23 24  1  0  0  0
 23 36  1  0  0  0
 24 25  2  0  0  0
 24 30  1  0  0  0
 25 26  1  0  0  0
 26 27  2  0  0  0
 27 28  1  0  0  0
 27 29  1  0  0  0
 29 30  2  0  0  0
 31 32  1  0  0  0
 31 33  1  0  0  0
 33 34  2  0  0  0
M  END
>  <CHROM.0>
-178.43680751,-76.39458077,-7.21933947,-63.39428608,-30.57504671,-60.82022631
81.44491033,-162.68422547

>  <CHROM.1>
157.60435191,167.50867335,61.94447083,20.10443522,-116.43176779,-85.23434500
-38.21656115,61.00642907,-20.55395699,20.92734057,-14.19699055,2.46060953
0.09299471,0.68030394

>  <Name>
F0772-2487

>  <RI>
2.80968e+07

>  <Rbt.Current_Directory>
/home/adria/Escritorio/rDock_CMTR_LC/2pxcA_model/inputs_sah

>  <Rbt.Executable>
rbdock ($Id: //depot/dev/client3/rdock/2013.1/src/exe/rbdock.cxx#4 $)

>  <Rbt.Library>
libRbt.so (2013.1, Build901 2013/11/27)

>  <Rbt.Parameter_File>
/home/adria/Escritorio/rDock_2013.1_src/data/scripts/dock.prm

>  <Rbt.Receptor>
sah_rdock.prm

>  <SCORE>
-259.779

>  <SCORE.INTER>
-12.0605

>  <SCORE.INTER.CONST>
1

>  <SCORE.INTER.POLAR>
-0.789294

>  <SCORE.INTER.REPUL>
0.0876294

>  <SCORE.INTER.ROT>
8

>  <SCORE.INTER.VDW>
-23.2151

>  <SCORE.INTER.norm>
-0.354722

>  <SCORE.INTRA>
-241.002

>  <SCORE.INTRA.DIHEDRAL>
8.4581

>  <SCORE.INTRA.DIHEDRAL.0>
13.3319

>  <SCORE.INTRA.POLAR>
0

>  <SCORE.INTRA.POLAR.0>
0

>  <SCORE.INTRA.REPUL>
0

>  <SCORE.INTRA.REPUL.0>
0

>  <SCORE.INTRA.VDW>
-245.231

>  <SCORE.INTRA.VDW.0>
242.971

>  <SCORE.INTRA.norm>
-7.08828

>  <SCORE.RESTR>
0

>  <SCORE.RESTR.CAVITY>
0

>  <SCORE.RESTR.norm>
0

>  <SCORE.SYSTEM>
-6.71636

>  <SCORE.SYSTEM.CONST>
0

>  <SCORE.SYSTEM.DIHEDRAL>
9.72754

>  <SCORE.SYSTEM.POLAR>
-4.58113

>  <SCORE.SYSTEM.REPUL>
0.0440258

>  <SCORE.SYSTEM.VDW>
3.77559

>  <SCORE.SYSTEM.norm>
-0.19754

>  <SCORE.heavy>
34

>  <SCORE.norm>
-7.64054

$$$$
F0772-2487
  rDOCK(R)          3D
libRbt.so/2013.1/901 2013/11/27
 36 39  0  0  0  0  0  0  0  0999 V2000
  -23.3801   20.8029   -9.4281 C   0  0  0  0  0  0
  -23.1252   19.5068  -10.2006 C   0  0  0  0  0  0
  -21.8781   19.1457  -10.8993 C   0  0  0  0  0  0
  -21.6954   18.1889  -12.0237 C   0  0  0  0  0  0
  -20.2483   18.5751  -12.9574 N   0  0  0  0  0  0
  -19.6786   20.0511  -12.8830 C   0  0  0  0  0  0
  -20.5606   21.5935  -13.6112 C   0  0  0  0  0  0
  -22.4931   22.1855  -12.7806 N   0  0  0  0  0  0
  -22.9594   23.5807  -11.8445 C   0  0  0  0  0  0
  -24.1121   23.9240  -12.1640 O   0  0  0  0  0  0
  -22.1186   24.6348  -10.7661 C   0  0  0  0  0  0
  -20.8108   24.7033  -10.2358 C   0  0  0  0  0  0
  -20.6253   25.8953   -9.4108 C   0  0  0  0  0  0
  -21.8366   26.5002   -9.3840 C   0  0  0  0  0  0
  -22.7140   25.6813  -10.0369 O   0  0  0  0  0  0
  -18.3524   19.8428  -13.1094 N   0  0  0  0  0  0
  -18.1565   18.7440  -13.9609 N   0  0  0  0  0  0
  -19.3381   18.2128  -14.2915 C   0  0  0  0  0  0
  -19.4774   18.2045  -16.4394 S   0  0  0  0  0  0
  -17.8843   18.8950  -17.7202 C   0  0  0  0  0  0
  -16.4137   19.1780  -17.1473 C   0  0  0  0  0  0
  -16.1062   20.2634  -16.6425 O   0  0  0  0  0  0
  -15.5485   18.1114  -16.9223 N   0  0  0  0  0  0
  -15.8664   16.8598  -17.4027 C   0  0  0  0  0  0
  -14.5716   16.1067  -18.3404 C   0  0  0  0  0  0
  -14.9787   14.5091  -19.3001 C   0  0  0  0  0  0
  -16.6409   13.8697  -19.1732 C   0  0  0  0  0  0
  -17.1284   13.3868  -20.3134 F   0  0  0  0  0  0
  -17.7733   14.6398  -18.1239 C   0  0  0  0  0  0
  -17.3923   16.0973  -17.2664 C   0  0  0  0  0  0
  -22.9657   17.4259  -12.1822 C   0  0  0  0  0  0
  -23.5737   16.3668  -13.1141 C   0  0  0  0  0  0
  -24.1459   17.7291  -11.3114 C   0  0  0  0  0  0
  -24.2465   18.7463  -10.3924 C   0  0  0  0  0  0
  -23.3626   21.8529  -13.1329 H   0  0  0  0  0  0
  -14.7318   18.2580  -16.3299 H   0  0  0  0  0  0
  1  2  1  0  0  0
  2  3  2  0  0  0
  2 34  1  0  0  0
  3  4  1  0  0  0
  4  5  1  0  0  0
  4 31  2  0  0  0
  5  6  1  0  0  0
  5 18  1  0  0  0
  6  7  1  0  0  0
  6 16  2  0  0  0
  7  8  1  0  0  0
  8  9  1  0  0  0
  8 35  1  0  0  0
  9 10  2  0  0  0
  9 11  1  0  0  0
 11 12  2  0  0  0
 11 15  1  0  0  0
 12 13  1  0  0  0
 13 14  2  0  0  0
 14 15  1  0  0  0
 16 17  1  0  0  0
 17 18  2  0  0  0
 18 19  1  0  0  0
 19 20  1  0  0  0
 20 21  1  0  0  0
 21 22  2  0  0  0
 21 23  1  0  0  0
 23 24  1  0  0  0
 23 36  1  0  0  0
 24 25  2  0  0  0
 24 30  1  0  0  0
 25 26  1  0  0  0
 26 27  2  0  0  0
 27 28  1  0  0  0
 27 29  1  0  0  0
 29 30  2  0  0  0
 31 32  1  0  0  0
 31 33  1  0  0  0
 33 34  2  0  0  0
M  END
>  <CHROM.0>
177.83081037,-169.38393264,-43.34827564,65.04360526,168.28495461,-59.18399451
-155.70110921,-54.40923613

>  <CHROM.1>
-22.10063557,63.83289295,111.89967332,-3.13433979,137.67146091,12.23098851
-85.74759401,128.65770847,-19.93856029,19.42518825,-14.03234145,2.22569463
0.63087950,0.38813555

>  <Name>
F0772-2487

>  <RI>
2.80968e+07

>  <Rbt.Current_Directory>
/home/adria/Escritorio/rDock_CMTR_LC/2pxcA_model/inputs_sah

>  <Rbt.Executable>
rbdock ($Id: //depot/dev/client3/rdock/2013.1/src/exe/rbdock.cxx#4 $)

>  <Rbt.Library>
libRbt.so (2013.1, Build901 2013/11/27)

>  <Rbt.Parameter_File>
/home/adria/Escritorio/rDock_2013.1_src/data/scripts/dock.prm

>  <Rbt.Receptor>
sah_rdock.prm

>  <SCORE>
-262.248

>  <SCORE.INTER>
-19.9041

>  <SCORE.INTER.CONST>
1

>  <SCORE.INTER.POLAR>
-0.87178

>  <SCORE.INTER.REPUL>
0

>  <SCORE.INTER.ROT>
8

>  <SCORE.INTER.VDW>
-30.3401

>  <SCORE.INTER.norm>
-0.585416

>  <SCORE.INTRA>
-243.336

>  <SCORE.INTRA.DIHEDRAL>
3.28776

>  <SCORE.INTRA.DIHEDRAL.0>
13.3319

>  <SCORE.INTRA.POLAR>
0

>  <SCORE.INTRA.POLAR.0>
0

>  <SCORE.INTRA.REPUL>
0

>  <SCORE.INTRA.REPUL.0>
0

>  <SCORE.INTRA.VDW>
-244.98

>  <SCORE.INTRA.VDW.0>
242.971

>  <SCORE.INTRA.norm>
-7.15695

>  <SCORE.RESTR>
0

>  <SCORE.RESTR.CAVITY>
0

>  <SCORE.RESTR.norm>
0

>  <SCORE.SYSTEM>
0.992449

>  <SCORE.SYSTEM.CONST>
0

>  <SCORE.SYSTEM.DIHEDRAL>
6.43265

>  <SCORE.SYSTEM.POLAR>
-3.28544

>  <SCORE.SYSTEM.REPUL>
0.000479069

>  <SCORE.SYSTEM.VDW>
8.94423

>  <SCORE.SYSTEM.norm>
0.0291897

>  <SCORE.heavy>
34

>  <SCORE.norm>
-7.71317

$$$$
F0772-2487
  rDOCK(R)          3D
libRbt.so/2013.1/901 2013/11/27
 36 39  0  0  0  0  0  0  0  0999 V2000
  -26.5647   22.2967  -16.1530 C   0  0  0  0  0  0
  -25.7405   21.0094  -16.2264 C   0  0  0  0  0  0
  -25.1041   20.3221  -15.0878 C   0  0  0  0  0  0
  -23.9432   19.3920  -15.1047 C   0  0  0  0  0  0
  -23.1260   19.3680  -13.5405 N   0  0  0  0  0  0
  -23.1547   20.6830  -12.6581 C   0  0  0  0  0  0
  -22.2455   22.3132  -13.1087 C   0  0  0  0  0  0
  -22.3253   23.9819  -11.7001 N   0  0  0  0  0  0
  -23.5585   24.4673  -10.5671 C   0  0  0  0  0  0
  -23.0193   24.9275   -9.5442 O   0  0  0  0  0  0
  -25.2727   24.2700  -10.5052 C   0  0  0  0  0  0
  -26.2501   24.2445   -9.4853 C   0  0  0  0  0  0
  -27.5993   24.1251  -10.0344 C   0  0  0  0  0  0
  -27.4283   24.0036  -11.3722 C   0  0  0  0  0  0
  -26.0838   23.9329  -11.6051 O   0  0  0  0  0  0
  -23.0685   20.1690  -11.4004 N   0  0  0  0  0  0
  -22.3145   18.9848  -11.3944 N   0  0  0  0  0  0
  -21.9106   18.7005  -12.6368 C   0  0  0  0  0  0
  -19.7644   18.5379  -12.6093 S   0  0  0  0  0  0
  -18.5221   19.1357  -14.2691 C   0  0  0  0  0  0
  -18.5360   20.6396  -14.8249 C   0  0  0  0  0  0
  -19.1085   21.5542  -14.2225 O   0  0  0  0  0  0
  -17.6450   21.0078  -15.8286 N   0  0  0  0  0  0
  -16.9260   20.0390  -16.4941 C   0  0  0  0  0  0
  -17.9281   18.7609  -17.1907 C   0  0  0  0  0  0
  -17.0488   17.2168  -17.8849 C   0  0  0  0  0  0
  -15.2660   17.1729  -17.7999 C   0  0  0  0  0  0
  -14.7637   15.9811  -17.4864 F   0  0  0  0  0  0
  -14.4064   18.5447  -17.2035 C   0  0  0  0  0  0
  -15.2194   19.9366  -16.5660 C   0  0  0  0  0  0
  -23.6628   19.0407  -16.5256 C   0  0  0  0  0  0
  -22.6379   18.2381  -17.3410 C   0  0  0  0  0  0
  -24.4719   19.6473  -17.6303 C   0  0  0  0  0  0
  -25.4366   20.6179  -17.5018 C   0  0  0  0  0  0
  -21.5138   24.4460  -11.3586 H   0  0  0  0  0  0
  -17.4765   21.9992  -15.9964 H   0  0  0  0  0  0
  1  2  1  0  0  0
  2  3  2  0  0  0
  2 34  1  0  0  0
  3  4  1  0  0  0
  4  5  1  0  0  0
  4 31  2  0  0  0
  5  6  1  0  0  0
  5 18  1  0  0  0
  6  7  1  0  0  0
  6 16  2  0  0  0
  7  8  1  0  0  0
  8  9  1  0  0  0
  8 35  1  0  0  0
  9 10  2  0  0  0
  9 11  1  0  0  0
 11 12  2  0  0  0
 11 15  1  0  0  0
 12 13  1  0  0  0
 13 14  2  0  0  0
 14 15  1  0  0  0
 16 17  1  0  0  0
 17 18  2  0  0  0
 18 19  1  0  0  0
 19 20  1  0  0  0
 20 21  1  0  0  0
 21 22  2  0  0  0
 21 23  1  0  0  0
 23 24  1  0  0  0
 23 36  1  0  0  0
 24 25  2  0  0  0
 24 30  1  0  0  0
 25 26  1  0  0  0
 26 27  2  0  0  0
 27 28  1  0  0  0
 27 29  1  0  0  0
 29 30  2  0  0  0
 31 32  1  0  0  0
 31 33  1  0  0  0
 33 34  2  0  0  0
M  END
>  <CHROM.0>
-61.77219473,64.82743639,91.43842780,-61.56912709,-31.83656114,-59.70464678
-38.44530358,-46.69740090

>  <CHROM.1>
-30.18920214,-176.77012542,-31.06559659,155.27264749,-10.49415081,59.15334948
10.12586518,53.71754746,-21.62467912,20.60283507,-14.15151612,2.48417513
-0.17313361,1.00724235

>  <Name>
F0772-2487

>  <RI>
2.80968e+07

>  <Rbt.Current_Directory>
/home/adria/Escritorio/rDock_CMTR_LC/2pxcA_model/inputs_sah

>  <Rbt.Executable>
rbdock ($Id: //depot/dev/client3/rdock/2013.1/src/exe/rbdock.cxx#4 $)

>  <Rbt.Library>
libRbt.so (2013.1, Build901 2013/11/27)

>  <Rbt.Parameter_File>
/home/adria/Escritorio/rDock_2013.1_src/data/scripts/dock.prm

>  <Rbt.Receptor>
sah_rdock.prm

>  <SCORE>
-259.993

>  <SCORE.INTER>
-12.2247

>  <SCORE.INTER.CONST>
1

>  <SCORE.INTER.POLAR>
0

>  <SCORE.INTER.REPUL>
0.14889

>  <SCORE.INTER.ROT>
8

>  <SCORE.INTER.VDW>
-26.3692

>  <SCORE.INTER.norm>
-0.35955

>  <SCORE.INTRA>
-243.178

>  <SCORE.INTRA.DIHEDRAL>
3.46054

>  <SCORE.INTRA.DIHEDRAL.0>
13.3319

>  <SCORE.INTRA.POLAR>
0

>  <SCORE.INTRA.POLAR.0>
0

>  <SCORE.INTRA.REPUL>
0

>  <SCORE.INTRA.REPUL.0>
0

>  <SCORE.INTRA.VDW>
-244.908

>  <SCORE.INTRA.VDW.0>
242.971

>  <SCORE.INTRA.norm>
-7.15228

>  <SCORE.RESTR>
0

>  <SCORE.RESTR.CAVITY>
0

>  <SCORE.RESTR.norm>
0

>  <SCORE.SYSTEM>
-4.59093

>  <SCORE.SYSTEM.CONST>
0

>  <SCORE.SYSTEM.DIHEDRAL>
8.90177

>  <SCORE.SYSTEM.POLAR>
-3.45516

>  <SCORE.SYSTEM.REPUL>
0.0201925

>  <SCORE.SYSTEM.VDW>
2.60477

>  <SCORE.SYSTEM.norm>
-0.135027

>  <SCORE.heavy>
34

>  <SCORE.norm>
-7.64686

$$$$
F0772-2487
  rDOCK(R)          3D
libRbt.so/2013.1/901 2013/11/27
 36 39  0  0  0  0  0  0  0  0999 V2000
  -18.8119   26.2026  -10.3831 C   0  0  0  0  0  0
  -20.0436   25.3333  -10.1207 C   0  0  0  0  0  0
  -20.2874   23.9875  -10.6713 C   0  0  0  0  0  0
  -21.5886   23.2930  -10.8659 C   0  0  0  0  0  0
  -21.4711   22.0668  -12.1299 N   0  0  0  0  0  0
  -22.5789   20.9361  -12.1842 C   0  0  0  0  0  0
  -22.7884   19.5567  -10.8648 C   0  0  0  0  0  0
  -23.2332   17.5247  -11.5342 N   0  0  0  0  0  0
  -23.6760   16.9059  -13.1030 C   0  0  0  0  0  0
  -23.1682   15.7806  -13.2597 O   0  0  0  0  0  0
  -24.4709   17.5844  -14.4774 C   0  0  0  0  0  0
  -24.4778   17.3308  -15.8672 C   0  0  0  0  0  0
  -25.4326   18.1880  -16.5670 C   0  0  0  0  0  0
  -25.9417   19.0039  -15.6136 C   0  0  0  0  0  0
  -25.2651   18.7464  -14.4549 O   0  0  0  0  0  0
  -22.5912   20.6305  -13.5108 N   0  0  0  0  0  0
  -21.3174   20.8013  -14.0756 N   0  0  0  0  0  0
  -20.4628   21.2296  -13.1408 C   0  0  0  0  0  0
  -18.8210   19.8397  -13.0644 S   0  0  0  0  0  0
  -18.6110   18.1964  -14.4467 C   0  0  0  0  0  0
  -19.6476   17.9783  -15.6503 C   0  0  0  0  0  0
  -20.8700   17.9766  -15.4685 O   0  0  0  0  0  0
  -19.2068   18.0982  -16.9650 N   0  0  0  0  0  0
  -17.8566   18.1717  -17.2296 C   0  0  0  0  0  0
  -17.2805   16.9272  -18.3442 C   0  0  0  0  0  0
  -15.3960   16.7354  -18.5699 C   0  0  0  0  0  0
  -14.3370   17.8404  -17.6505 C   0  0  0  0  0  0
  -13.2415   17.2650  -17.1609 F   0  0  0  0  0  0
  -15.0373   19.0906  -16.6898 C   0  0  0  0  0  0
  -16.7517   19.2458  -16.4856 C   0  0  0  0  0  0
  -22.6360   24.0842  -10.1603 C   0  0  0  0  0  0
  -24.1590   24.0737   -9.9603 C   0  0  0  0  0  0
  -22.2811   25.3630   -9.4662 C   0  0  0  0  0  0
  -21.0573   25.9886   -9.4762 C   0  0  0  0  0  0
  -22.9168   16.7116  -11.0551 H   0  0  0  0  0  0
  -19.8974   18.2155  -17.7058 H   0  0  0  0  0  0
  1  2  1  0  0  0
  2  3  2  0  0  0
  2 34  1  0  0  0
  3  4  1  0  0  0
  4  5  1  0  0  0
  4 31  2  0  0  0
  5  6  1  0  0  0
  5 18  1  0  0  0
  6  7  1  0  0  0
  6 16  2  0  0  0
  7  8  1  0  0  0
  8  9  1  0  0  0
  8 35  1  0  0  0
  9 10  2  0  0  0
  9 11  1  0  0  0
 11 12  2  0  0  0
 11 15  1  0  0  0
 12 13  1  0  0  0
 13 14  2  0  0  0
 14 15  1  0  0  0
 16 17  1  0  0  0
 17 18  2  0  0  0
 18 19  1  0  0  0
 19 20  1  0  0  0
 20 21  1  0  0  0
 21 22  2  0  0  0
 21 23  1  0  0  0
 23 24  1  0  0  0
 23 36  1  0  0  0
 24 25  2  0  0  0
 24 30  1  0  0  0
 25 26  1  0  0  0
 26 27  2  0  0  0
 27 28  1  0  0  0
 27 29  1  0  0  0
 29 30  2  0  0  0
 31 32  1  0  0  0
 31 33  1  0  0  0
 33 34  2  0  0  0
M  END
>  <CHROM.0>
38.02553971,-165.74067768,-48.20114667,61.06903483,-32.31343989,-58.29581318
82.90356631,-169.58106049

>  <CHROM.1>
161.46247585,-138.91863426,-10.13051661,154.38958741,141.18591712,2.96635775
-49.97897804,123.48083553,-20.62209799,19.98554869,-13.80765875,-2.16548903
-0.24271660,-2.47720952

>  <Name>
F0772-2487

>  <RI>
2.80968e+07

>  <Rbt.Current_Directory>
/home/adria/Escritorio/rDock_CMTR_LC/2pxcA_model/inputs_sah

>  <Rbt.Executable>
rbdock ($Id: //depot/dev/client3/rdock/2013.1/src/exe/rbdock.cxx#4 $)

>  <Rbt.Library>
libRbt.so (2013.1, Build901 2013/11/27)

>  <Rbt.Parameter_File>
/home/adria/Escritorio/rDock_2013.1_src/data/scripts/dock.prm

>  <Rbt.Receptor>
sah_rdock.prm

>  <SCORE>
-262.584

>  <SCORE.INTER>
-18.4525

>  <SCORE.INTER.CONST>
1

>  <SCORE.INTER.POLAR>
-1.55612

>  <SCORE.INTER.REPUL>
0

>  <SCORE.INTER.ROT>
8

>  <SCORE.INTER.VDW>
-26.5616

>  <SCORE.INTER.norm>
-0.54272

>  <SCORE.INTRA>
-242.333

>  <SCORE.INTRA.DIHEDRAL>
6.79987

>  <SCORE.INTRA.DIHEDRAL.0>
13.3319

>  <SCORE.INTRA.POLAR>
0

>  <SCORE.INTRA.POLAR.0>
0

>  <SCORE.INTRA.REPUL>
0

>  <SCORE.INTRA.REPUL.0>
0

>  <SCORE.INTRA.VDW>
-245.733

>  <SCORE.INTRA.VDW.0>
242.971

>  <SCORE.INTRA.norm>
-7.12745

>  <SCORE.RESTR>
0

>  <SCORE.RESTR.CAVITY>
0

>  <SCORE.RESTR.norm>
0

>  <SCORE.SYSTEM>
-1.79805

>  <SCORE.SYSTEM.CONST>
0

>  <SCORE.SYSTEM.DIHEDRAL>
7.90278

>  <SCORE.SYSTEM.POLAR>
-3.5177

>  <SCORE.SYSTEM.REPUL>
0.129306

>  <SCORE.SYSTEM.VDW>
5.56423

>  <SCORE.SYSTEM.norm>
-0.0528838

>  <SCORE.heavy>
34

>  <SCORE.norm>
-7.72305

$$$$
F0772-2487
  rDOCK(R)          3D
libRbt.so/2013.1/901 2013/11/27
 36 39  0  0  0  0  0  0  0  0999 V2000
  -24.8353   17.1391  -17.6638 C   0  0  0  0  0  0
  -24.4235   18.2250  -16.6673 C   0  0  0  0  0  0
  -23.0648   18.4457  -16.1390 C   0  0  0  0  0  0
  -22.6661   19.1175  -14.8730 C   0  0  0  0  0  0
  -21.0806   18.5623  -14.3316 N   0  0  0  0  0  0
  -20.4529   19.2286  -13.0390 C   0  0  0  0  0  0
  -19.8500   21.0489  -12.9395 C   0  0  0  0  0  0
  -21.1660   22.6309  -13.6748 N   0  0  0  0  0  0
  -22.2213   23.7300  -12.8273 C   0  0  0  0  0  0
  -22.2193   24.8314  -13.4068 O   0  0  0  0  0  0
  -23.0677   23.6582  -11.3241 C   0  0  0  0  0  0
  -23.4035   22.6420  -10.4018 C   0  0  0  0  0  0
  -24.0772   23.1843   -9.2236 C   0  0  0  0  0  0
  -24.2128   24.5088   -9.4708 C   0  0  0  0  0  0
  -23.7686   24.7321  -10.7435 O   0  0  0  0  0  0
  -19.6775   18.2170  -12.5605 N   0  0  0  0  0  0
  -19.1839   17.4256  -13.6096 N   0  0  0  0  0  0
  -19.6342   17.8933  -14.7784 C   0  0  0  0  0  0
  -17.9269   18.3153  -16.0195 S   0  0  0  0  0  0
  -16.2137   17.0092  -16.1400 C   0  0  0  0  0  0
  -14.9191   17.4051  -16.9992 C   0  0  0  0  0  0
  -14.3935   18.5203  -16.9140 O   0  0  0  0  0  0
  -14.1772   16.4053  -17.6214 N   0  0  0  0  0  0
  -14.6792   15.1241  -17.6911 C   0  0  0  0  0  0
  -14.5731   14.4043  -19.3016 C   0  0  0  0  0  0
  -15.4867   12.7571  -19.6041 C   0  0  0  0  0  0
  -16.3764   12.0415  -18.2315 C   0  0  0  0  0  0
  -17.5446   11.4970  -18.5627 F   0  0  0  0  0  0
  -16.2956   12.7900  -16.6793 C   0  0  0  0  0  0
  -15.4704   14.2926  -16.4220 C   0  0  0  0  0  0
  -23.8740   19.7882  -14.3143 C   0  0  0  0  0  0
  -24.2858   20.5834  -13.0663 C   0  0  0  0  0  0
  -25.1970   19.6657  -15.0055 C   0  0  0  0  0  0
  -25.4789   18.8894  -16.1042 C   0  0  0  0  0  0
  -21.0441   23.0749  -14.5573 H   0  0  0  0  0  0
  -13.2335   16.6210  -17.9412 H   0  0  0  0  0  0
  1  2  1  0  0  0
  2  3  2  0  0  0
  2 34  1  0  0  0
  3  4  1  0  0  0
  4  5  1  0  0  0
  4 31  2  0  0  0
  5  6  1  0  0  0
  5 18  1  0  0  0
  6  7  1  0  0  0
  6 16  2  0  0  0
  7  8  1  0  0  0
  8  9  1  0  0  0
  8 35  1  0  0  0
  9 10  2  0  0  0
  9 11  1  0  0  0
 11 12  2  0  0  0
 11 15  1  0  0  0
 12 13  1  0  0  0
 13 14  2  0  0  0
 14 15  1  0  0  0
 16 17  1  0  0  0
 17 18  2  0  0  0
 18 19  1  0  0  0
 19 20  1  0  0  0
 20 21  1  0  0  0
 21 22  2  0  0  0
 21 23  1  0  0  0
 23 24  1  0  0  0
 23 36  1  0  0  0
 24 25  2  0  0  0
 24 30  1  0  0  0
 25 26  1  0  0  0
 26 27  2  0  0  0
 27 28  1  0  0  0
 27 29  1  0  0  0
 29 30  2  0  0  0
 31 32  1  0  0  0
 31 33  1  0  0  0
 33 34  2  0  0  0
M  END
>  <CHROM.0>
175.70303296,66.68230080,-42.48957448,68.38805064,169.24617179,-179.01017226
-156.41803456,-178.75142221

>  <CHROM.1>
176.64286516,48.43749484,100.22875475,-14.33925841,177.40864765,-175.83519444
47.56874617,132.02958273,-20.05300584,18.64849000,-14.95959542,2.23116375
-0.01120002,0.61560326

>  <Name>
F0772-2487

>  <RI>
2.80968e+07

>  <Rbt.Current_Directory>
/home/adria/Escritorio/rDock_CMTR_LC/2pxcA_model/inputs_sah

>  <Rbt.Executable>
rbdock ($Id: //depot/dev/client3/rdock/2013.1/src/exe/rbdock.cxx#4 $)

>  <Rbt.Library>
libRbt.so (2013.1, Build901 2013/11/27)

>  <Rbt.Parameter_File>
/home/adria/Escritorio/rDock_2013.1_src/data/scripts/dock.prm

>  <Rbt.Receptor>
sah_rdock.prm

>  <SCORE>
-264.932

>  <SCORE.INTER>
-19.1249

>  <SCORE.INTER.CONST>
1

>  <SCORE.INTER.POLAR>
-3.43667

>  <SCORE.INTER.REPUL>
0.0185228

>  <SCORE.INTER.ROT>
8

>  <SCORE.INTER.VDW>
-20.9329

>  <SCORE.INTER.norm>
-0.562497

>  <SCORE.INTRA>
-244.447

>  <SCORE.INTRA.DIHEDRAL>
-0.548525

>  <SCORE.INTRA.DIHEDRAL.0>
13.3319

>  <SCORE.INTRA.POLAR>
0

>  <SCORE.INTRA.POLAR.0>
0

>  <SCORE.INTRA.REPUL>
0

>  <SCORE.INTRA.REPUL.0>
0

>  <SCORE.INTRA.VDW>
-244.173

>  <SCORE.INTRA.VDW.0>
242.971

>  <SCORE.INTRA.norm>
-7.18962

>  <SCORE.RESTR>
0.00438307

>  <SCORE.RESTR.CAVITY>
0.00438307

>  <SCORE.RESTR.norm>
0.000128914

>  <SCORE.SYSTEM>
-1.36402

>  <SCORE.SYSTEM.CONST>
0

>  <SCORE.SYSTEM.DIHEDRAL>
3.12189

>  <SCORE.SYSTEM.POLAR>
-3.49921

>  <SCORE.SYSTEM.VDW>
8.97234

>  <SCORE.SYSTEM.norm>
-0.0401184

>  <SCORE.heavy>
34

>  <SCORE.norm>
-7.79211

$$$$
F0772-2487
  rDOCK(R)          3D
libRbt.so/2013.1/901 2013/11/27
 36 39  0  0  0  0  0  0  0  0999 V2000
  -24.3595   24.2363  -13.7650 C   0  0  0  0  0  0
  -25.0264   22.8871  -14.0417 C   0  0  0  0  0  0
  -24.8959   21.6711  -13.2182 C   0  0  0  0  0  0
  -25.0918   20.2546  -13.6284 C   0  0  0  0  0  0
  -24.1956   19.1586  -12.5746 N   0  0  0  0  0  0
  -23.7563   19.6825  -11.1459 C   0  0  0  0  0  0
  -22.4389   21.0473  -10.8476 C   0  0  0  0  0  0
  -23.1128   23.0964  -10.4985 N   0  0  0  0  0  0
  -22.2653   24.6162  -10.6093 C   0  0  0  0  0  0
  -23.0419   25.4902  -11.0355 O   0  0  0  0  0  0
  -20.6108   25.0801  -10.4395 C   0  0  0  0  0  0
  -19.3883   24.4028  -10.2329 C   0  0  0  0  0  0
  -18.2524   25.3223  -10.2530 C   0  0  0  0  0  0
  -18.7959   26.5544  -10.3954 C   0  0  0  0  0  0
  -20.1534   26.4079  -10.3442 O   0  0  0  0  0  0
  -23.7268   18.5256  -10.4288 N   0  0  0  0  0  0
  -23.3656   17.4409  -11.2435 N   0  0  0  0  0  0
  -23.1679   17.8635  -12.4965 C   0  0  0  0  0  0
  -21.1749   17.2930  -13.0759 S   0  0  0  0  0  0
  -20.4778   17.3774  -15.1161 C   0  0  0  0  0  0
  -20.9769   18.5203  -16.1238 C   0  0  0  0  0  0
  -22.1525   18.9004  -16.1511 O   0  0  0  0  0  0
  -20.0403   19.3240  -16.7670 N   0  0  0  0  0  0
  -18.7044   18.9906  -16.7183 C   0  0  0  0  0  0
  -17.6463   20.3461  -16.3108 C   0  0  0  0  0  0
  -15.7640   20.0936  -16.4911 C   0  0  0  0  0  0
  -15.1940   18.4948  -17.0446 C   0  0  0  0  0  0
  -14.1721   18.5443  -17.8957 F   0  0  0  0  0  0
  -16.3320   17.2218  -17.2912 C   0  0  0  0  0  0
  -18.0405   17.4691  -17.1339 C   0  0  0  0  0  0
  -25.7123   20.2555  -14.9834 C   0  0  0  0  0  0
  -26.1360   19.2508  -16.0653 C   0  0  0  0  0  0
  -25.9804   21.5466  -15.6935 C   0  0  0  0  0  0
  -25.6197   22.8041  -15.2720 C   0  0  0  0  0  0
  -24.0686   23.3707  -10.5421 H   0  0  0  0  0  0
  -20.3518   20.1962  -17.1934 H   0  0  0  0  0  0
  1  2  1  0  0  0
  2  3  2  0  0  0
  2 34  1  0  0  0
  3  4  1  0  0  0
  4  5  1  0  0  0
  4 31  2  0  0  0
  5  6  1  0  0  0
  5 18  1  0  0  0
  6  7  1  0  0  0
  6 16  2  0  0  0
  7  8  1  0  0  0
  8  9  1  0  0  0
  8 35  1  0  0  0
  9 10  2  0  0  0
  9 11  1  0  0  0
 11 12  2  0  0  0
 11 15  1  0  0  0
 12 13  1  0  0  0
 13 14  2  0  0  0
 14 15  1  0  0  0
 16 17  1  0  0  0
 17 18  2  0  0  0
 18 19  1  0  0  0
 19 20  1  0  0  0
 20 21  1  0  0  0
 21 22  2  0  0  0
 21 23  1  0  0  0
 23 24  1  0  0  0
 23 36  1  0  0  0
 24 25  2  0  0  0
 24 30  1  0  0  0
 25 26  1  0  0  0
 26 27  2  0  0  0
 27 28  1  0  0  0
 27 29  1  0  0  0
 29 30  2  0  0  0
 31 32  1  0  0  0
 31 33  1  0  0  0
 33 34  2  0  0  0
M  END
>  <CHROM.0>
-65.64785404,-77.81741770,-44.57547602,60.39030651,168.32276092,-58.53173850
-161.74095541,-166.81870671

>  <CHROM.1>
20.24883764,97.73813821,-161.69223052,4.32493994,-56.89812875,34.35308869
-40.49692846,-132.75207877,-21.40463754,20.76041084,-13.68566179,2.24865411
0.19933061,0.61745416

>  <Name>
F0772-2487

>  <RI>
2.80968e+07

>  <Rbt.Current_Directory>
/home/adria/Escritorio/rDock_CMTR_LC/2pxcA_model/inputs_sah

>  <Rbt.Executable>
rbdock ($Id: //depot/dev/client3/rdock/2013.1/src/exe/rbdock.cxx#4 $)

>  <Rbt.Library>
libRbt.so (2013.1, Build901 2013/11/27)

>  <Rbt.Parameter_File>
/home/adria/Escritorio/rDock_2013.1_src/data/scripts/dock.prm

>  <Rbt.Receptor>
sah_rdock.prm

>  <SCORE>
-259.422

>  <SCORE.INTER>
-13.2809

>  <SCORE.INTER.CONST>
1

>  <SCORE.INTER.POLAR>
-1.74577

>  <SCORE.INTER.REPUL>
0.665087

>  <SCORE.INTER.ROT>
8

>  <SCORE.INTER.VDW>
-24.0707

>  <SCORE.INTER.norm>
-0.390614

>  <SCORE.INTRA>
-243.615

>  <SCORE.INTRA.DIHEDRAL>
4.25302

>  <SCORE.INTRA.DIHEDRAL.0>
13.3319

>  <SCORE.INTRA.POLAR>
0

>  <SCORE.INTRA.POLAR.0>
0

>  <SCORE.INTRA.REPUL>
0

>  <SCORE.INTRA.REPUL.0>
0

>  <SCORE.INTRA.VDW>
-245.742

>  <SCORE.INTRA.VDW.0>
242.971

>  <SCORE.INTRA.norm>
-7.16515

>  <SCORE.RESTR>
0.0271922

>  <SCORE.RESTR.CAVITY>
0.0271922

>  <SCORE.RESTR.norm>
0.000799769

>  <SCORE.SYSTEM>
-2.55366

>  <SCORE.SYSTEM.CONST>
0

>  <SCORE.SYSTEM.DIHEDRAL>
3.83816

>  <SCORE.SYSTEM.POLAR>
-3.88129

>  <SCORE.SYSTEM.REPUL>
0.0459803

>  <SCORE.SYSTEM.VDW>
8.49373

>  <SCORE.SYSTEM.norm>
-0.0751077

>  <SCORE.heavy>
34

>  <SCORE.norm>
-7.63007

$$$$
F0772-2487
  rDOCK(R)          3D
libRbt.so/2013.1/901 2013/11/27
 36 39  0  0  0  0  0  0  0  0999 V2000
  -24.8009   17.6025  -17.4620 C   0  0  0  0  0  0
  -24.7812   18.2427  -16.0723 C   0  0  0  0  0  0
  -23.5781   18.6451  -15.3208 C   0  0  0  0  0  0
  -23.4239   18.8166  -13.8512 C   0  0  0  0  0  0
  -21.7385   18.6260  -13.3631 N   0  0  0  0  0  0
  -21.3778   18.7903  -11.8296 C   0  0  0  0  0  0
  -21.4707   20.4472  -10.8636 C   0  0  0  0  0  0
  -20.0827   22.0494  -11.3943 N   0  0  0  0  0  0
  -19.9220   23.6751  -10.7851 C   0  0  0  0  0  0
  -18.7182   23.9903  -10.7661 O   0  0  0  0  0  0
  -21.0179   24.7978  -10.0642 C   0  0  0  0  0  0
  -20.9204   26.1002   -9.5255 C   0  0  0  0  0  0
  -22.2264   26.6144   -9.1180 C   0  0  0  0  0  0
  -23.0930   25.5980   -9.3409 C   0  0  0  0  0  0
  -22.3576   24.5164   -9.7360 O   0  0  0  0  0  0
  -20.2841   17.9871  -11.7196 N   0  0  0  0  0  0
  -19.5509   17.9732  -12.9166 N   0  0  0  0  0  0
  -20.1536   18.7482  -13.8242 C   0  0  0  0  0  0
  -18.7284   20.2214  -14.4811 S   0  0  0  0  0  0
  -17.6199   20.0404  -16.3233 C   0  0  0  0  0  0
  -18.3605   19.7994  -17.7248 C   0  0  0  0  0  0
  -19.0080   20.6911  -18.2842 O   0  0  0  0  0  0
  -18.0330   18.6843  -18.4906 N   0  0  0  0  0  0
  -17.2574   17.6843  -17.9457 C   0  0  0  0  0  0
  -18.0800   16.1240  -17.8376 C   0  0  0  0  0  0
  -17.2291   14.7342  -16.8456 C   0  0  0  0  0  0
  -15.6460   15.0981  -16.1047 C   0  0  0  0  0  0
  -15.4804   14.5814  -14.8896 F   0  0  0  0  0  0
  -14.9008   16.6273  -16.3922 C   0  0  0  0  0  0
  -15.6909   17.8844  -17.2868 C   0  0  0  0  0  0
  -24.7834   18.7678  -13.2427 C   0  0  0  0  0  0
  -25.4322   18.7923  -11.8505 C   0  0  0  0  0  0
  -25.9888   18.5282  -14.0986 C   0  0  0  0  0  0
  -25.9954   18.2355  -15.4415 C   0  0  0  0  0  0
  -19.2018   21.8859  -11.8280 H   0  0  0  0  0  0
  -18.3033   18.6669  -19.4735 H   0  0  0  0  0  0
  1  2  1  0  0  0
  2  3  2  0  0  0
  2 34  1  0  0  0
  3  4  1  0  0  0
  4  5  1  0  0  0
  4 31  2  0  0  0
  5  6  1  0  0  0
  5 18  1  0  0  0
  6  7  1  0  0  0
  6 16  2  0  0  0
  7  8  1  0  0  0
  8  9  1  0  0  0
  8 35  1  0  0  0
  9 10  2  0  0  0
  9 11  1  0  0  0
 11 12  2  0  0  0
 11 15  1  0  0  0
 12 13  1  0  0  0
 13 14  2  0  0  0
 14 15  1  0  0  0
 16 17  1  0  0  0
 17 18  2  0  0  0
 18 19  1  0  0  0
 19 20  1  0  0  0
 20 21  1  0  0  0
 21 22  2  0  0  0
 21 23  1  0  0  0
 23 24  1  0  0  0
 23 36  1  0  0  0
 24 25  2  0  0  0
 24 30  1  0  0  0
 25 26  1  0  0  0
 26 27  2  0  0  0
 27 28  1  0  0  0
 27 29  1  0  0  0
 29 30  2  0  0  0
 31 32  1  0  0  0
 31 33  1  0  0  0
 33 34  2  0  0  0
M  END
>  <CHROM.0>
-56.31797090,-171.98371841,75.82857006,59.57561159,168.82858207,-55.11581038
-40.15272836,-168.98804009

>  <CHROM.1>
179.37202260,-66.74024326,177.41823534,177.74872619,-124.74380916,53.56757280
72.36828229,117.28044885,-20.39616921,19.70828488,-13.99164952,1.09062488
-0.10375556,-2.44364764

>  <Name>
F0772-2487

>  <RI>
2.80968e+07

>  <Rbt.Current_Directory>
/home/adria/Escritorio/rDock_CMTR_LC/2pxcA_model/inputs_sah

>  <Rbt.Executable>
rbdock ($Id: //depot/dev/client3/rdock/2013.1/src/exe/rbdock.cxx#4 $)

>  <Rbt.Library>
libRbt.so (2013.1, Build901 2013/11/27)

>  <Rbt.Parameter_File>
/home/adria/Escritorio/rDock_2013.1_src/data/scripts/dock.prm

>  <Rbt.Receptor>
sah_rdock.prm

>  <SCORE>
-258.261

>  <SCORE.INTER>
-14.0337

>  <SCORE.INTER.CONST>
1

>  <SCORE.INTER.POLAR>
-1.91988

>  <SCORE.INTER.REPUL>
0.192616

>  <SCORE.INTER.ROT>
8

>  <SCORE.INTER.VDW>
-21.8692

>  <SCORE.INTER.norm>
-0.412757

>  <SCORE.INTRA>
-242.942

>  <SCORE.INTRA.DIHEDRAL>
4.16455

>  <SCORE.INTRA.DIHEDRAL.0>
13.3319

>  <SCORE.INTRA.POLAR>
0

>  <SCORE.INTRA.POLAR.0>
0

>  <SCORE.INTRA.REPUL>
0

>  <SCORE.INTRA.REPUL.0>
0

>  <SCORE.INTRA.VDW>
-245.024

>  <SCORE.INTRA.VDW.0>
242.971

>  <SCORE.INTRA.norm>
-7.14536

>  <SCORE.RESTR>
0

>  <SCORE.RESTR.CAVITY>
0

>  <SCORE.RESTR.norm>
0

>  <SCORE.SYSTEM>
-1.28539

>  <SCORE.SYSTEM.CONST>
0

>  <SCORE.SYSTEM.DIHEDRAL>
2.68361

>  <SCORE.SYSTEM.POLAR>
-3.54072

>  <SCORE.SYSTEM.VDW>
9.41126

>  <SCORE.SYSTEM.norm>
-0.0378056

>  <SCORE.heavy>
34

>  <SCORE.norm>
-7.59592

$$$$
F0772-2487
  rDOCK(R)          3D
libRbt.so/2013.1/901 2013/11/27
 36 39  0  0  0  0  0  0  0  0999 V2000
  -23.2840   19.9184   -8.2675 C   0  0  0  0  0  0
  -23.9938   19.4445   -9.5377 C   0  0  0  0  0  0
  -23.3947   18.6338  -10.6137 C   0  0  0  0  0  0
  -23.8181   18.5327  -12.0362 C   0  0  0  0  0  0
  -22.4739   18.0322  -13.0647 N   0  0  0  0  0  0
  -20.9987   18.3221  -12.5663 C   0  0  0  0  0  0
  -20.2292   20.0746  -12.4124 C   0  0  0  0  0  0
  -21.2683   21.7606  -13.3357 N   0  0  0  0  0  0
  -22.0890   23.1271  -12.6291 C   0  0  0  0  0  0
  -21.9109   24.1293  -13.3451 O   0  0  0  0  0  0
  -22.8901   23.3956  -11.1233 C   0  0  0  0  0  0
  -23.3768   22.5784  -10.0787 C   0  0  0  0  0  0
  -23.9068   23.3746   -8.9736 C   0  0  0  0  0  0
  -23.8082   24.6612   -9.3842 C   0  0  0  0  0  0
  -23.3683   24.6422  -10.6776 O   0  0  0  0  0  0
  -20.3063   17.3137  -13.1639 N   0  0  0  0  0  0
  -20.8894   16.9658  -14.3925 N   0  0  0  0  0  0
  -21.9692   17.7235  -14.6105 C   0  0  0  0  0  0
  -21.6993   18.7257  -16.4962 S   0  0  0  0  0  0
  -19.8048   19.5409  -17.1300 C   0  0  0  0  0  0
  -18.9822   20.5610  -16.2061 C   0  0  0  0  0  0
  -19.5279   21.5107  -15.6338 O   0  0  0  0  0  0
  -17.7024   20.2198  -15.7789 N   0  0  0  0  0  0
  -17.0647   19.1304  -16.3313 C   0  0  0  0  0  0
  -15.3930   19.4496  -16.8073 C   0  0  0  0  0  0
  -14.4917   18.1239  -17.8415 C   0  0  0  0  0  0
  -15.3938   16.6374  -18.2464 C   0  0  0  0  0  0
  -15.1801   16.1884  -19.4808 F   0  0  0  0  0  0
  -16.9815   16.4038  -17.6131 C   0  0  0  0  0  0
  -17.7919   17.6221  -16.6836 C   0  0  0  0  0  0
  -25.1443   19.2003  -12.1643 C   0  0  0  0  0  0
  -26.1579   19.5649  -13.2594 C   0  0  0  0  0  0
  -25.7803   19.8566  -10.9779 C   0  0  0  0  0  0
  -25.2223   20.0151   -9.7318 C   0  0  0  0  0  0
  -21.0965   22.0619  -14.2687 H   0  0  0  0  0  0
  -17.2911   20.7338  -15.0004 H   0  0  0  0  0  0
  1  2  1  0  0  0
  2  3  2  0  0  0
  2 34  1  0  0  0
  3  4  1  0  0  0
  4  5  1  0  0  0
  4 31  2  0  0  0
  5  6  1  0  0  0
  5 18  1  0  0  0
  6  7  1  0  0  0
  6 16  2  0  0  0
  7  8  1  0  0  0
  8  9  1  0  0  0
  8 35  1  0  0  0
  9 10  2  0  0  0
  9 11  1  0  0  0
 11 12  2  0  0  0
 11 15  1  0  0  0
 12 13  1  0  0  0
 13 14  2  0  0  0
 14 15  1  0  0  0
 16 17  1  0  0  0
 17 18  2  0  0  0
 18 19  1  0  0  0
 19 20  1  0  0  0
 20 21  1  0  0  0
 21 22  2  0  0  0
 21 23  1  0  0  0
 23 24  1  0  0  0
 23 36  1  0  0  0
 24 25  2  0  0  0
 24 30  1  0  0  0
 25 26  1  0  0  0
 26 27  2  0  0  0
 27 28  1  0  0  0
 27 29  1  0  0  0
 29 30  2  0  0  0
 31 32  1  0  0  0
 31 33  1  0  0  0
 33 34  2  0  0  0
M  END
>  <CHROM.0>
-178.74039803,-72.40022361,-164.67221124,65.08326342,35.81870915,64.08949202
-4.52925226,-164.47544160

>  <CHROM.1>
-24.26469311,-12.67523153,111.63152470,-14.67996625,95.72783760,-53.34449874
-45.26562390,133.09856290,-21.03847606,19.83977496,-13.72237672,2.56879446
0.64769969,0.32482602

>  <Name>
F0772-2487

>  <RI>
2.80968e+07

>  <Rbt.Current_Directory>
/home/adria/Escritorio/rDock_CMTR_LC/2pxcA_model/inputs_sah

>  <Rbt.Executable>
rbdock ($Id: //depot/dev/client3/rdock/2013.1/src/exe/rbdock.cxx#4 $)

>  <Rbt.Library>
libRbt.so (2013.1, Build901 2013/11/27)

>  <Rbt.Parameter_File>
/home/adria/Escritorio/rDock_2013.1_src/data/scripts/dock.prm

>  <Rbt.Receptor>
sah_rdock.prm

>  <SCORE>
-251.176

>  <SCORE.INTER>
-13.5757

>  <SCORE.INTER.CONST>
1

>  <SCORE.INTER.POLAR>
-1.18472

>  <SCORE.INTER.REPUL>
0

>  <SCORE.INTER.ROT>
8

>  <SCORE.INTER.VDW>
-22.9477

>  <SCORE.INTER.norm>
-0.399286

>  <SCORE.INTRA>
-245.009

>  <SCORE.INTRA.DIHEDRAL>
4.34481

>  <SCORE.INTRA.DIHEDRAL.0>
13.3319

>  <SCORE.INTRA.POLAR>
-0.464862

>  <SCORE.INTRA.POLAR.0>
0

>  <SCORE.INTRA.REPUL>
0

>  <SCORE.INTRA.REPUL.0>
0

>  <SCORE.INTRA.VDW>
-245.601

>  <SCORE.INTRA.VDW.0>
242.971

>  <SCORE.INTRA.norm>
-7.20615

>  <SCORE.RESTR>
0

>  <SCORE.RESTR.CAVITY>
0

>  <SCORE.RESTR.norm>
0

>  <SCORE.SYSTEM>
7.40869

>  <SCORE.SYSTEM.CONST>
0

>  <SCORE.SYSTEM.DIHEDRAL>
7.87182

>  <SCORE.SYSTEM.POLAR>
-3.42391

>  <SCORE.SYSTEM.REPUL>
0.0374469

>  <SCORE.SYSTEM.VDW>
14.9269

>  <SCORE.SYSTEM.norm>
0.217903

>  <SCORE.heavy>
34

>  <SCORE.norm>
-7.38753

$$$$
F0772-2487
  rDOCK(R)          3D
libRbt.so/2013.1/901 2013/11/27
 36 39  0  0  0  0  0  0  0  0999 V2000
  -24.7490   23.0386  -13.2822 C   0  0  0  0  0  0
  -24.8909   21.6127  -12.7451 C   0  0  0  0  0  0
  -23.7844   20.6843  -12.4491 C   0  0  0  0  0  0
  -23.8187   19.1982  -12.3905 C   0  0  0  0  0  0
  -22.2190   18.5140  -12.6868 N   0  0  0  0  0  0
  -20.9786   19.1526  -11.9369 C   0  0  0  0  0  0
  -20.2902   20.9120  -12.2803 C   0  0  0  0  0  0
  -21.6488   22.4355  -13.0601 N   0  0  0  0  0  0
  -21.9895   24.0556  -12.5130 C   0  0  0  0  0  0
  -22.1977   24.7872  -13.4980 O   0  0  0  0  0  0
  -21.9098   24.8431  -10.9785 C   0  0  0  0  0  0
  -21.7678   24.4268   -9.6359 C   0  0  0  0  0  0
  -21.6761   25.5659   -8.7250 C   0  0  0  0  0  0
  -21.8378   26.6595   -9.5071 C   0  0  0  0  0  0
  -22.1248   26.2182  -10.7680 O   0  0  0  0  0  0
  -20.1364   18.0868  -11.8472 N   0  0  0  0  0  0
  -20.2986   17.2270  -12.9449 N   0  0  0  0  0  0
  -21.2489   17.7040  -13.7555 C   0  0  0  0  0  0
  -20.3868   17.9359  -15.7141 S   0  0  0  0  0  0
  -18.2826   18.2893  -16.0344 C   0  0  0  0  0  0
  -17.6858   18.5076  -17.5065 C   0  0  0  0  0  0
  -17.4043   19.6309  -17.9382 O   0  0  0  0  0  0
  -17.1813   17.4181  -18.2104 N   0  0  0  0  0  0
  -17.4042   16.1406  -17.7450 C   0  0  0  0  0  0
  -17.9149   15.0048  -18.9988 C   0  0  0  0  0  0
  -18.5320   13.2859  -18.4474 C   0  0  0  0  0  0
  -18.5365   12.9319  -16.6975 C   0  0  0  0  0  0
  -19.5981   12.2452  -16.2823 F   0  0  0  0  0  0
  -17.8961   14.0903  -15.5911 C   0  0  0  0  0  0
  -17.3488   15.6525  -16.1058 C   0  0  0  0  0  0
  -25.2472   18.7748  -12.4256 C   0  0  0  0  0  0
  -26.0718   17.4798  -12.4741 C   0  0  0  0  0  0
  -26.3371   19.7942  -12.5518 C   0  0  0  0  0  0
  -26.1770   21.1454  -12.7465 C   0  0  0  0  0  0
  -21.9756   22.4445  -14.0003 H   0  0  0  0  0  0
  -16.5803   17.5894  -19.0159 H   0  0  0  0  0  0
  1  2  1  0  0  0
  2  3  2  0  0  0
  2 34  1  0  0  0
  3  4  1  0  0  0
  4  5  1  0  0  0
  4 31  2  0  0  0
  5  6  1  0  0  0
  5 18  1  0  0  0
  6  7  1  0  0  0
  6 16  2  0  0  0
  7  8  1  0  0  0
  8  9  1  0  0  0
  8 35  1  0  0  0
  9 10  2  0  0  0
  9 11  1  0  0  0
 11 12  2  0  0  0
 11 15  1  0  0  0
 12 13  1  0  0  0
 13 14  2  0  0  0
 14 15  1  0  0  0
 16 17  1  0  0  0
 17 18  2  0  0  0
 18 19  1  0  0  0
 19 20  1  0  0  0
 20 21  1  0  0  0
 21 22  2  0  0  0
 21 23  1  0  0  0
 23 24  1  0  0  0
 23 36  1  0  0  0
 24 25  2  0  0  0
 24 30  1  0  0  0
 25 26  1  0  0  0
 26 27  2  0  0  0
 27 28  1  0  0  0
 27 29  1  0  0  0
 29 30  2  0  0  0
 31 32  1  0  0  0
 31 33  1  0  0  0
 33 34  2  0  0  0
M  END
>  <CHROM.0>
-169.47920038,-69.51697481,111.51154675,-62.98459780,-30.89987553,178.84544798
82.47130804,-164.90998133

>  <CHROM.1>
45.79815290,26.77763509,128.30179853,-12.87778621,108.39681691,-177.84186893
101.70071558,134.53005336,-21.10912559,19.44056285,-13.94969115,2.04917216
0.47183323,0.35857336

>  <Name>
F0772-2487

>  <RI>
2.80968e+07

>  <Rbt.Current_Directory>
/home/adria/Escritorio/rDock_CMTR_LC/2pxcA_model/inputs_sah

>  <Rbt.Executable>
rbdock ($Id: //depot/dev/client3/rdock/2013.1/src/exe/rbdock.cxx#4 $)

>  <Rbt.Library>
libRbt.so (2013.1, Build901 2013/11/27)

>  <Rbt.Parameter_File>
/home/adria/Escritorio/rDock_2013.1_src/data/scripts/dock.prm

>  <Rbt.Receptor>
sah_rdock.prm

>  <SCORE>
-265.182

>  <SCORE.INTER>
-18.6446

>  <SCORE.INTER.CONST>
1

>  <SCORE.INTER.POLAR>
-3.50133

>  <SCORE.INTER.REPUL>
0.322214

>  <SCORE.INTER.ROT>
8

>  <SCORE.INTER.VDW>
-21.7511

>  <SCORE.INTER.norm>
-0.54837

>  <SCORE.INTRA>
-240.057

>  <SCORE.INTRA.DIHEDRAL>
7.04642

>  <SCORE.INTRA.DIHEDRAL.0>
13.3319

>  <SCORE.INTRA.POLAR>
0

>  <SCORE.INTRA.POLAR.0>
0

>  <SCORE.INTRA.REPUL>
0

>  <SCORE.INTRA.REPUL.0>
0

>  <SCORE.INTRA.VDW>
-243.58

>  <SCORE.INTRA.VDW.0>
242.971

>  <SCORE.INTRA.norm>
-7.0605

>  <SCORE.RESTR>
0

>  <SCORE.RESTR.CAVITY>
0

>  <SCORE.RESTR.norm>
0

>  <SCORE.SYSTEM>
-6.48067

>  <SCORE.SYSTEM.CONST>
0

>  <SCORE.SYSTEM.DIHEDRAL>
9.30696

>  <SCORE.SYSTEM.POLAR>
-4.50083

>  <SCORE.SYSTEM.REPUL>
0.0317318

>  <SCORE.SYSTEM.VDW>
4.01002

>  <SCORE.SYSTEM.norm>
-0.190608

>  <SCORE.heavy>
34

>  <SCORE.norm>
-7.79948

$$$$
F0772-2487
  rDOCK(R)          3D
libRbt.so/2013.1/901 2013/11/27
 36 39  0  0  0  0  0  0  0  0999 V2000
  -24.3824   16.4690  -17.7289 C   0  0  0  0  0  0
  -24.3860   17.7424  -16.8803 C   0  0  0  0  0  0
  -23.2885   18.2087  -16.0131 C   0  0  0  0  0  0
  -23.3650   19.1181  -14.8382 C   0  0  0  0  0  0
  -22.0077   18.8539  -13.7414 N   0  0  0  0  0  0
  -21.9006   19.7610  -12.4474 C   0  0  0  0  0  0
  -21.5178   21.6425  -12.4688 C   0  0  0  0  0  0
  -21.8801   22.8067  -10.6553 N   0  0  0  0  0  0
  -23.3659   23.3096   -9.8939 C   0  0  0  0  0  0
  -23.2222   23.2892   -8.6580 O   0  0  0  0  0  0
  -24.9615   23.6252  -10.4734 C   0  0  0  0  0  0
  -26.1775   24.0572   -9.8984 C   0  0  0  0  0  0
  -27.2181   24.2363  -10.9090 C   0  0  0  0  0  0
  -26.6524   23.8419  -12.0744 C   0  0  0  0  0  0
  -25.4126   23.3500  -11.7780 O   0  0  0  0  0  0
  -21.2461   18.9327  -11.5877 N   0  0  0  0  0  0
  -20.3693   18.0834  -12.2810 N   0  0  0  0  0  0
  -20.4447   18.3302  -13.5928 C   0  0  0  0  0  0
  -18.4641   18.8091  -14.2866 S   0  0  0  0  0  0
  -17.9835   19.0662  -16.3743 C   0  0  0  0  0  0
  -16.6134   19.7580  -16.8380 C   0  0  0  0  0  0
  -16.3056   20.9013  -16.4840 O   0  0  0  0  0  0
  -15.6026   18.9760  -17.3890 N   0  0  0  0  0  0
  -15.8644   17.6707  -17.7442 C   0  0  0  0  0  0
  -14.4611   16.6038  -17.6205 C   0  0  0  0  0  0
  -14.6086   14.8480  -18.3518 C   0  0  0  0  0  0
  -16.1646   14.3923  -19.0994 C   0  0  0  0  0  0
  -16.0453   13.6691  -20.2101 F   0  0  0  0  0  0
  -17.4925   15.4921  -19.0432 C   0  0  0  0  0  0
  -17.3405   17.0885  -18.3849 C   0  0  0  0  0  0
  -24.7292   19.7175  -14.8155 C   0  0  0  0  0  0
  -25.5730   20.6463  -13.9294 C   0  0  0  0  0  0
  -25.7466   19.3258  -15.8424 C   0  0  0  0  0  0
  -25.6073   18.3550  -16.8054 C   0  0  0  0  0  0
  -21.2130   22.8947   -9.9219 H   0  0  0  0  0  0
  -14.6591   19.3586  -17.4418 H   0  0  0  0  0  0
  1  2  1  0  0  0
  2  3  2  0  0  0
  2 34  1  0  0  0
  3  4  1  0  0  0
  4  5  1  0  0  0
  4 31  2  0  0  0
  5  6  1  0  0  0
  5 18  1  0  0  0
  6  7  1  0  0  0
  6 16  2  0  0  0
  7  8  1  0  0  0
  8  9  1  0  0  0
  8 35  1  0  0  0
  9 10  2  0  0  0
  9 11  1  0  0  0
 11 12  2  0  0  0
 11 15  1  0  0  0
 12 13  1  0  0  0
 13 14  2  0  0  0
 14 15  1  0  0  0
 16 17  1  0  0  0
 17 18  2  0  0  0
 18 19  1  0  0  0
 19 20  1  0  0  0
 20 21  1  0  0  0
 21 22  2  0  0  0
 21 23  1  0  0  0
 23 24  1  0  0  0
 23 36  1  0  0  0
 24 25  2  0  0  0
 24 30  1  0  0  0
 25 26  1  0  0  0
 26 27  2  0  0  0
 27 28  1  0  0  0
 27 29  1  0  0  0
 29 30  2  0  0  0
 31 32  1  0  0  0
 31 33  1  0  0  0
 33 34  2  0  0  0
M  END
>  <CHROM.0>
178.29731076,-75.87569959,-128.43032127,-59.95277504,169.04324496,-62.92821112
-156.11799219,-166.23961176

>  <CHROM.1>
178.46751533,165.49918405,-71.71416272,-178.43745929,-51.68673104,165.05922129
-57.63727890,-150.02986079,-21.02687980,19.40729875,-14.67836939,0.81673267
0.02535733,-2.29116984

>  <Name>
F0772-2487

>  <RI>
2.80968e+07

>  <Rbt.Current_Directory>
/home/adria/Escritorio/rDock_CMTR_LC/2pxcA_model/inputs_sah

>  <Rbt.Executable>
rbdock ($Id: //depot/dev/client3/rdock/2013.1/src/exe/rbdock.cxx#4 $)

>  <Rbt.Library>
libRbt.so (2013.1, Build901 2013/11/27)

>  <Rbt.Parameter_File>
/home/adria/Escritorio/rDock_2013.1_src/data/scripts/dock.prm

>  <Rbt.Receptor>
sah_rdock.prm

>  <SCORE>
-261.372

>  <SCORE.INTER>
-13.0918

>  <SCORE.INTER.CONST>
1

>  <SCORE.INTER.POLAR>
-1.00171

>  <SCORE.INTER.REPUL>
0

>  <SCORE.INTER.ROT>
8

>  <SCORE.INTER.VDW>
-23.086

>  <SCORE.INTER.norm>
-0.385052

>  <SCORE.INTRA>
-246.468

>  <SCORE.INTRA.DIHEDRAL>
-4.61899

>  <SCORE.INTRA.DIHEDRAL.0>
13.3319

>  <SCORE.INTRA.POLAR>
0

>  <SCORE.INTRA.POLAR.0>
0

>  <SCORE.INTRA.REPUL>
0

>  <SCORE.INTRA.REPUL.0>
0

>  <SCORE.INTRA.VDW>
-244.159

>  <SCORE.INTRA.VDW.0>
242.971

>  <SCORE.INTRA.norm>
-7.24907

>  <SCORE.RESTR>
0

>  <SCORE.RESTR.CAVITY>
0

>  <SCORE.RESTR.norm>
0

>  <SCORE.SYSTEM>
-1.81204

>  <SCORE.SYSTEM.CONST>
0

>  <SCORE.SYSTEM.DIHEDRAL>
6.71766

>  <SCORE.SYSTEM.POLAR>
-4.52966

>  <SCORE.SYSTEM.REPUL>
0.0432615

>  <SCORE.SYSTEM.VDW>
10.0137

>  <SCORE.SYSTEM.norm>
-0.0532954

>  <SCORE.heavy>
34

>  <SCORE.norm>
-7.68742

$$$$
F0772-2487
  rDOCK(R)          3D
libRbt.so/2013.1/901 2013/11/27
 36 39  0  0  0  0  0  0  0  0999 V2000
  -25.8002   22.6649  -13.1585 C   0  0  0  0  0  0
  -25.4336   21.3222  -13.7946 C   0  0  0  0  0  0
  -24.5328   20.3075  -13.2177 C   0  0  0  0  0  0
  -23.7664   19.2465  -13.9248 C   0  0  0  0  0  0
  -22.3587   18.7465  -12.9848 N   0  0  0  0  0  0
  -21.8635   19.6915  -11.8141 C   0  0  0  0  0  0
  -21.0745   21.4224  -12.0759 C   0  0  0  0  0  0
  -22.3916   23.1447  -12.3472 N   0  0  0  0  0  0
  -23.4960   23.9274  -11.2481 C   0  0  0  0  0  0
  -23.4930   25.1528  -11.4652 O   0  0  0  0  0  0
  -24.3938   23.3965   -9.8721 C   0  0  0  0  0  0
  -24.6219   22.1581   -9.2317 C   0  0  0  0  0  0
  -25.4229   22.3174   -8.0196 C   0  0  0  0  0  0
  -25.7377   23.6336   -7.9729 C   0  0  0  0  0  0
  -25.2703   24.2041   -9.1231 O   0  0  0  0  0  0
  -21.2943   18.7946  -10.9626 N   0  0  0  0  0  0
  -20.7413   17.7150  -11.6692 N   0  0  0  0  0  0
  -20.9491   17.8793  -12.9797 C   0  0  0  0  0  0
  -19.0339   17.8250  -13.9608 S   0  0  0  0  0  0
  -18.1189   19.5685  -14.8430 C   0  0  0  0  0  0
  -18.7700   20.3040  -16.1103 C   0  0  0  0  0  0
  -19.6052   21.2062  -15.9850 O   0  0  0  0  0  0
  -18.1820   20.1600  -17.3635 N   0  0  0  0  0  0
  -17.1966   19.2157  -17.5522 C   0  0  0  0  0  0
  -17.8157   17.6138  -17.9689 C   0  0  0  0  0  0
  -16.5854   16.1558  -17.9739 C   0  0  0  0  0  0
  -14.8821   16.5105  -17.5729 C   0  0  0  0  0  0
  -14.2960   15.5866  -16.8154 F   0  0  0  0  0  0
  -14.3911   18.1424  -17.3039 C   0  0  0  0  0  0
  -15.5224   19.4556  -17.2918 C   0  0  0  0  0  0
  -24.2568   19.1923  -15.3311 C   0  0  0  0  0  0
  -23.9402   18.4566  -16.6418 C   0  0  0  0  0  0
  -25.3093   20.1468  -15.8042 C   0  0  0  0  0  0
  -25.8470   21.1926  -15.0925 C   0  0  0  0  0  0
  -22.2464   23.8369  -13.0476 H   0  0  0  0  0  0
  -18.4324   20.8169  -18.1019 H   0  0  0  0  0  0
  1  2  1  0  0  0
  2  3  2  0  0  0
  2 34  1  0  0  0
  3  4  1  0  0  0
  4  5  1  0  0  0
  4 31  2  0  0  0
  5  6  1  0  0  0
  5 18  1  0  0  0
  6  7  1  0  0  0
  6 16  2  0  0  0
  7  8  1  0  0  0
  8  9  1  0  0  0
  8 35  1  0  0  0
  9 10  2  0  0  0
  9 11  1  0  0  0
 11 12  2  0  0  0
 11 15  1  0  0  0
 12 13  1  0  0  0
 13 14  2  0  0  0
 14 15  1  0  0  0
 16 17  1  0  0  0
 17 18  2  0  0  0
 18 19  1  0  0  0
 19 20  1  0  0  0
 20 21  1  0  0  0
 21 22  2  0  0  0
 21 23  1  0  0  0
 23 24  1  0  0  0
 23 36  1  0  0  0
 24 25  2  0  0  0
 24 30  1  0  0  0
 25 26  1  0  0  0
 26 27  2  0  0  0
 27 28  1  0  0  0
 27 29  1  0  0  0
 29 30  2  0  0  0
 31 32  1  0  0  0
 31 33  1  0  0  0
 33 34  2  0  0  0
M  END
>  <CHROM.0>
-177.40742219,61.85209312,75.53107507,66.53747515,-31.89792139,178.50847821
82.04413188,-52.58440943

>  <CHROM.1>
-16.85653554,83.54684394,67.14102905,-5.70815066,26.04551567,-65.58948507
88.88072102,86.97206531,-21.22148696,20.11176552,-13.82448027,2.42140133
-0.26080313,1.16945896

>  <Name>
F0772-2487

>  <RI>
2.80968e+07

>  <Rbt.Current_Directory>
/home/adria/Escritorio/rDock_CMTR_LC/2pxcA_model/inputs_sah

>  <Rbt.Executable>
rbdock ($Id: //depot/dev/client3/rdock/2013.1/src/exe/rbdock.cxx#4 $)

>  <Rbt.Library>
libRbt.so (2013.1, Build901 2013/11/27)

>  <Rbt.Parameter_File>
/home/adria/Escritorio/rDock_2013.1_src/data/scripts/dock.prm

>  <Rbt.Receptor>
sah_rdock.prm

>  <SCORE>
-262.283

>  <SCORE.INTER>
-14.6498

>  <SCORE.INTER.CONST>
1

>  <SCORE.INTER.POLAR>
-1.26288

>  <SCORE.INTER.REPUL>
0

>  <SCORE.INTER.ROT>
8

>  <SCORE.INTER.VDW>
-23.756

>  <SCORE.INTER.norm>
-0.430877

>  <SCORE.INTRA>
-242.96

>  <SCORE.INTRA.DIHEDRAL>
7.33938

>  <SCORE.INTRA.DIHEDRAL.0>
13.3319

>  <SCORE.INTRA.POLAR>
0

>  <SCORE.INTRA.POLAR.0>
0

>  <SCORE.INTRA.REPUL>
0

>  <SCORE.INTRA.REPUL.0>
0

>  <SCORE.INTRA.VDW>
-246.63

>  <SCORE.INTRA.VDW.0>
242.971

>  <SCORE.INTRA.norm>
-7.14589

>  <SCORE.RESTR>
0

>  <SCORE.RESTR.CAVITY>
0

>  <SCORE.RESTR.norm>
0

>  <SCORE.SYSTEM>
-4.6729

>  <SCORE.SYSTEM.CONST>
0

>  <SCORE.SYSTEM.DIHEDRAL>
8.1678

>  <SCORE.SYSTEM.POLAR>
-3.30796

>  <SCORE.SYSTEM.REPUL>
0.00514982

>  <SCORE.SYSTEM.VDW>
2.46451

>  <SCORE.SYSTEM.norm>
-0.137438

>  <SCORE.heavy>
34

>  <SCORE.norm>
-7.7142

$$$$
F0772-2487
  rDOCK(R)          3D
libRbt.so/2013.1/901 2013/11/27
 36 39  0  0  0  0  0  0  0  0999 V2000
  -25.0657   18.1246  -17.3201 C   0  0  0  0  0  0
  -24.7672   19.1161  -16.1934 C   0  0  0  0  0  0
  -23.5673   19.1183  -15.3366 C   0  0  0  0  0  0
  -23.4076   19.6975  -13.9757 C   0  0  0  0  0  0
  -22.1038   18.8983  -13.0945 N   0  0  0  0  0  0
  -21.7156   19.4526  -11.6625 C   0  0  0  0  0  0
  -20.8868   21.1554  -11.3452 C   0  0  0  0  0  0
  -22.0854   22.9663  -11.5884 N   0  0  0  0  0  0
  -23.2983   23.6843  -10.5620 C   0  0  0  0  0  0
  -23.2173   24.9241  -10.6348 O   0  0  0  0  0  0
  -24.3964   23.0573   -9.3864 C   0  0  0  0  0  0
  -25.2962   23.6110   -8.4484 C   0  0  0  0  0  0
  -26.0538   22.5739   -7.7509 C   0  0  0  0  0  0
  -25.5585   21.4014   -8.2130 C   0  0  0  0  0  0
  -24.5060   21.6995   -9.0316 O   0  0  0  0  0  0
  -21.2417   18.3300  -11.0552 N   0  0  0  0  0  0
  -20.6336   17.4752  -11.9881 N   0  0  0  0  0  0
  -20.7105   18.0125  -13.2100 C   0  0  0  0  0  0
  -18.7093   18.1664  -13.9876 S   0  0  0  0  0  0
  -17.9688   19.9352  -14.9768 C   0  0  0  0  0  0
  -18.5546   20.4091  -16.3921 C   0  0  0  0  0  0
  -19.3105   21.3815  -16.4945 O   0  0  0  0  0  0
  -17.9801   19.9318  -17.5664 N   0  0  0  0  0  0
  -17.0781   18.8917  -17.5129 C   0  0  0  0  0  0
  -17.5709   17.4730  -18.4443 C   0  0  0  0  0  0
  -16.5630   15.8682  -18.2252 C   0  0  0  0  0  0
  -15.1745   15.9111  -17.1035 C   0  0  0  0  0  0
  -15.0355   14.8129  -16.3649 F   0  0  0  0  0  0
  -14.7319   17.3989  -16.3506 C   0  0  0  0  0  0
  -15.6638   18.8467  -16.5507 C   0  0  0  0  0  0
  -24.6092   20.5325  -13.6932 C   0  0  0  0  0  0
  -25.2037   21.3567  -12.5413 C   0  0  0  0  0  0
  -25.7202   20.6251  -14.6933 C   0  0  0  0  0  0
  -25.8248   19.9218  -15.8695 C   0  0  0  0  0  0
  -21.8184   23.7212  -12.1796 H   0  0  0  0  0  0
  -18.1736   20.4187  -18.4410 H   0  0  0  0  0  0
  1  2  1  0  0  0
  2  3  2  0  0  0
  2 34  1  0  0  0
  3  4  1  0  0  0
  4  5  1  0  0  0
  4 31  2  0  0  0
  5  6  1  0  0  0
  5 18  1  0  0  0
  6  7  1  0  0  0
  6 16  2  0  0  0
  7  8  1  0  0  0
  8  9  1  0  0  0
  8 35  1  0  0  0
  9 10  2  0  0  0
  9 11  1  0  0  0
 11 12  2  0  0  0
 11 15  1  0  0  0
 12 13  1  0  0  0
 13 14  2  0  0  0
 14 15  1  0  0  0
 16 17  1  0  0  0
 17 18  2  0  0  0
 18 19  1  0  0  0
 19 20  1  0  0  0
 20 21  1  0  0  0
 21 22  2  0  0  0
 21 23  1  0  0  0
 23 24  1  0  0  0
 23 36  1  0  0  0
 24 25  2  0  0  0
 24 30  1  0  0  0
 25 26  1  0  0  0
 26 27  2  0  0  0
 27 28  1  0  0  0
 27 29  1  0  0  0
 29 30  2  0  0  0
 31 32  1  0  0  0
 31 33  1  0  0  0
 33 34  2  0  0  0
M  END
>  <CHROM.0>
-179.76726847,64.84546011,-48.41223345,-60.34176431,168.01182007,58.42191676
47.70353564,-162.87401932

>  <CHROM.1>
175.60364206,72.60126034,76.61193841,172.49469221,0.91014788,-66.72697837
105.79569785,120.63913109,-21.15112046,19.77650718,-13.76441747,2.37826330
-0.20471399,1.13950925

>  <Name>
F0772-2487

>  <RI>
2.80968e+07

>  <Rbt.Current_Directory>
/home/adria/Escritorio/rDock_CMTR_LC/2pxcA_model/inputs_sah

>  <Rbt.Executable>
rbdock ($Id: //depot/dev/client3/rdock/2013.1/src/exe/rbdock.cxx#4 $)

>  <Rbt.Library>
libRbt.so (2013.1, Build901 2013/11/27)

>  <Rbt.Parameter_File>
/home/adria/Escritorio/rDock_2013.1_src/data/scripts/dock.prm

>  <Rbt.Receptor>
sah_rdock.prm

>  <SCORE>
-259.906

>  <SCORE.INTER>
-15.3346

>  <SCORE.INTER.CONST>
1

>  <SCORE.INTER.POLAR>
-2.0864

>  <SCORE.INTER.REPUL>
0.00444113

>  <SCORE.INTER.ROT>
8

>  <SCORE.INTER.VDW>
-21.663

>  <SCORE.INTER.norm>
-0.451017

>  <SCORE.INTRA>
-244.543

>  <SCORE.INTRA.DIHEDRAL>
2.32572

>  <SCORE.INTRA.DIHEDRAL.0>
13.3319

>  <SCORE.INTRA.POLAR>
0

>  <SCORE.INTRA.POLAR.0>
0

>  <SCORE.INTRA.REPUL>
0

>  <SCORE.INTRA.REPUL.0>
0

>  <SCORE.INTRA.VDW>
-245.706

>  <SCORE.INTRA.VDW.0>
242.971

>  <SCORE.INTRA.norm>
-7.19244

>  <SCORE.RESTR>
0

>  <SCORE.RESTR.CAVITY>
0

>  <SCORE.RESTR.norm>
0

>  <SCORE.SYSTEM>
-0.0284615

>  <SCORE.SYSTEM.CONST>
0

>  <SCORE.SYSTEM.DIHEDRAL>
1.90769

>  <SCORE.SYSTEM.POLAR>
-2.87806

>  <SCORE.SYSTEM.VDW>
8.80309

>  <SCORE.SYSTEM.norm>
-0.000837104

>  <SCORE.heavy>
34

>  <SCORE.norm>
-7.6443

$$$$
