F0745-0334
  rDOCK(R)          3D
libRbt.so/2013.1/901 2013/11/27
 21 23  0  0  0  0  0  0  0  0999 V2000
  -24.9524   23.4530  -13.8163 N   0  0  0  0  0  0
  -24.3433   23.5518  -12.5571 N   0  0  0  0  0  0
  -23.6467   24.7142  -12.1962 C   0  0  0  0  0  0
  -23.6700   25.7706  -13.0528 N   0  0  0  0  0  0
  -22.9975   26.8833  -12.7324 C   0  0  0  0  0  0
  -22.2671   27.1007  -11.6398 N   0  0  0  0  0  0
  -22.2622   26.0485  -10.8074 C   0  0  0  0  0  0
  -22.9191   24.8380  -10.9909 C   0  0  0  0  0  0
  -22.6866   23.9666   -9.8595 C   0  0  0  0  0  0
  -21.8630   24.5432   -8.9120 C   0  0  0  0  0  0
  -21.3803   26.1192   -9.3513 S   0  0  0  0  0  0
  -23.2231   22.6359   -9.6304 C   0  0  0  0  0  0
  -22.8598   21.5747  -10.4676 C   0  0  0  0  0  0
  -23.3925   20.3014  -10.2520 C   0  0  0  0  0  0
  -24.2860   20.0931   -9.2018 C   0  0  0  0  0  0
  -25.0061   18.3698   -8.9119 Br  0  0  0  0  0  0
  -24.6535   21.1454   -8.3644 C   0  0  0  0  0  0
  -24.1211   22.4188   -8.5781 C   0  0  0  0  0  0
  -25.7431   22.8049  -13.7563 H   0  0  0  0  0  0
  -24.3004   22.9704  -14.4479 H   0  0  0  0  0  0
  -24.3018   22.7424  -11.9446 H   0  0  0  0  0  0
  1  2  1  0  0  0
  1 19  1  0  0  0
  1 20  1  0  0  0
  2  3  1  0  0  0
  2 21  1  0  0  0
  3  4  2  0  0  0
  3  8  1  0  0  0
  4  5  1  0  0  0
  5  6  2  0  0  0
  6  7  1  0  0  0
  7  8  2  0  0  0
  7 11  1  0  0  0
  8  9  1  0  0  0
  9 10  2  0  0  0
  9 12  1  0  0  0
 10 11  1  0  0  0
 12 13  2  0  0  0
 12 18  1  0  0  0
 13 14  1  0  0  0
 14 15  2  0  0  0
 15 16  1  0  0  0
 15 17  1  0  0  0
 17 18  2  0  0  0
M  END
>  <CHROM.0>
149.41066091,-72.53234574,75.52374983,64.78629883,168.23607793,179.49556603
-36.06679766,-54.34079760

>  <CHROM.1>
-153.15838730,5.07852939,65.72782093,-23.60992853,22.61616272,-10.25134166
1.02523630,-0.98557447,-0.78642404

>  <Name>
F0745-0334

>  <RI>
1.24256e+07

>  <Rbt.Current_Directory>
/home/adria/Escritorio/rDock_CMTR_LC/2pxcA_model/inputs_sah

>  <Rbt.Executable>
rbdock ($Id: //depot/dev/client3/rdock/2013.1/src/exe/rbdock.cxx#4 $)

>  <Rbt.Library>
libRbt.so (2013.1, Build901 2013/11/27)

>  <Rbt.Parameter_File>
/home/adria/Escritorio/rDock_2013.1_src/data/scripts/dock.prm

>  <Rbt.Receptor>
sah_rdock.prm

>  <SCORE>
-12.3394

>  <SCORE.INTER>
-13.7331

>  <SCORE.INTER.CONST>
1

>  <SCORE.INTER.POLAR>
-2.49829

>  <SCORE.INTER.REPUL>
0

>  <SCORE.INTER.ROT>
3

>  <SCORE.INTER.VDW>
-13.6389

>  <SCORE.INTER.norm>
-0.76295

>  <SCORE.INTRA>
-0.10177

>  <SCORE.INTRA.DIHEDRAL>
-1.52169

>  <SCORE.INTRA.DIHEDRAL.0>
12.8415

>  <SCORE.INTRA.POLAR>
0.0106328

>  <SCORE.INTRA.POLAR.0>
-0.0106328

>  <SCORE.INTRA.REPUL>
0

>  <SCORE.INTRA.REPUL.0>
0

>  <SCORE.INTRA.VDW>
0.622925

>  <SCORE.INTRA.VDW.0>
-1.82529

>  <SCORE.INTRA.norm>
-0.00565387

>  <SCORE.RESTR>
0

>  <SCORE.RESTR.CAVITY>
0

>  <SCORE.RESTR.norm>
0

>  <SCORE.SYSTEM>
1.4955

>  <SCORE.SYSTEM.CONST>
0

>  <SCORE.SYSTEM.DIHEDRAL>
10.2005

>  <SCORE.SYSTEM.POLAR>
-3.58622

>  <SCORE.SYSTEM.REPUL>
0.038344

>  <SCORE.SYSTEM.VDW>
8.39667

>  <SCORE.SYSTEM.norm>
0.0830834

>  <SCORE.heavy>
18

>  <SCORE.norm>
-0.68552

$$$$
F0745-0334
  rDOCK(R)          3D
libRbt.so/2013.1/901 2013/11/27
 21 23  0  0  0  0  0  0  0  0999 V2000
  -24.6203   23.6476  -14.3679 N   0  0  0  0  0  0
  -23.4381   23.5497  -13.6202 N   0  0  0  0  0  0
  -22.9404   24.6658  -12.9321 C   0  0  0  0  0  0
  -23.5868   25.8536  -13.0794 N   0  0  0  0  0  0
  -23.1167   26.9337  -12.4427 C   0  0  0  0  0  0
  -22.0452   27.0057  -11.6546 N   0  0  0  0  0  0
  -21.4266   25.8228  -11.5195 C   0  0  0  0  0  0
  -21.7993   24.6167  -12.0997 C   0  0  0  0  0  0
  -20.8912   23.5654  -11.6948 C   0  0  0  0  0  0
  -19.8864   24.0282  -10.8672 C   0  0  0  0  0  0
  -20.0273   25.6993  -10.5551 S   0  0  0  0  0  0
  -20.9473   22.1543  -12.0365 C   0  0  0  0  0  0
  -20.4695   21.7084  -13.2742 C   0  0  0  0  0  0
  -20.5419   20.3527  -13.6032 C   0  0  0  0  0  0
  -21.0914   19.4480  -12.6953 C   0  0  0  0  0  0
  -21.1891   17.6142  -13.1423 Br  0  0  0  0  0  0
  -21.5704   19.8848  -11.4610 C   0  0  0  0  0  0
  -21.4979   21.2398  -11.1303 C   0  0  0  0  0  0
  -25.4130   23.3775  -13.7786 H   0  0  0  0  0  0
  -24.6025   22.9144  -15.0884 H   0  0  0  0  0  0
  -22.8731   22.7067  -13.6656 H   0  0  0  0  0  0
  1  2  1  0  0  0
  1 19  1  0  0  0
  1 20  1  0  0  0
  2  3  1  0  0  0
  2 21  1  0  0  0
  3  4  2  0  0  0
  3  8  1  0  0  0
  4  5  1  0  0  0
  5  6  2  0  0  0
  6  7  1  0  0  0
  7  8  2  0  0  0
  7 11  1  0  0  0
  8  9  1  0  0  0
  9 10  2  0  0  0
  9 12  1  0  0  0
 10 11  1  0  0  0
 12 13  2  0  0  0
 12 18  1  0  0  0
 13 14  1  0  0  0
 14 15  2  0  0  0
 15 16  1  0  0  0
 15 17  1  0  0  0
 17 18  2  0  0  0
M  END
>  <CHROM.0>
-59.45143410,-167.62571567,111.18346258,63.15919732,168.59723859,61.46384114
-156.62024517,-163.08215298

>  <CHROM.1>
-92.59135050,-4.02377286,80.51761912,-21.56323466,22.20977141,-12.43450434
1.69027031,-0.63806882,0.21784563

>  <Name>
F0745-0334

>  <RI>
1.24256e+07

>  <Rbt.Current_Directory>
/home/adria/Escritorio/rDock_CMTR_LC/2pxcA_model/inputs_sah

>  <Rbt.Executable>
rbdock ($Id: //depot/dev/client3/rdock/2013.1/src/exe/rbdock.cxx#4 $)

>  <Rbt.Library>
libRbt.so (2013.1, Build901 2013/11/27)

>  <Rbt.Parameter_File>
/home/adria/Escritorio/rDock_2013.1_src/data/scripts/dock.prm

>  <Rbt.Receptor>
sah_rdock.prm

>  <SCORE>
-20.9643

>  <SCORE.INTER>
-19.932

>  <SCORE.INTER.CONST>
1

>  <SCORE.INTER.POLAR>
-1.92622

>  <SCORE.INTER.REPUL>
0

>  <SCORE.INTER.ROT>
3

>  <SCORE.INTER.VDW>
-21.7829

>  <SCORE.INTER.norm>
-1.10733

>  <SCORE.INTRA>
0.44605

>  <SCORE.INTRA.DIHEDRAL>
0.830221

>  <SCORE.INTRA.DIHEDRAL.0>
12.8415

>  <SCORE.INTRA.POLAR>
0.0106328

>  <SCORE.INTRA.POLAR.0>
-0.0106328

>  <SCORE.INTRA.REPUL>
0

>  <SCORE.INTRA.REPUL.0>
0

>  <SCORE.INTRA.VDW>
-0.00521186

>  <SCORE.INTRA.VDW.0>
-1.82529

>  <SCORE.INTRA.norm>
0.0247806

>  <SCORE.RESTR>
0

>  <SCORE.RESTR.CAVITY>
0

>  <SCORE.RESTR.norm>
0

>  <SCORE.SYSTEM>
-1.4783

>  <SCORE.SYSTEM.CONST>
0

>  <SCORE.SYSTEM.DIHEDRAL>
6.41502

>  <SCORE.SYSTEM.POLAR>
-4.27118

>  <SCORE.SYSTEM.VDW>
9.83621

>  <SCORE.SYSTEM.norm>
-0.0821279

>  <SCORE.heavy>
18

>  <SCORE.norm>
-1.16468

$$$$
F0745-0334
  rDOCK(R)          3D
libRbt.so/2013.1/901 2013/11/27
 21 23  0  0  0  0  0  0  0  0999 V2000
  -24.5942   23.5903  -14.3319 N   0  0  0  0  0  0
  -23.3921   23.5414  -13.6115 N   0  0  0  0  0  0
  -22.9259   24.6768  -12.9332 C   0  0  0  0  0  0
  -23.5322   25.8689  -13.1812 N   0  0  0  0  0  0
  -23.0902   26.9667  -12.5547 C   0  0  0  0  0  0
  -22.0831   27.0529  -11.6872 N   0  0  0  0  0  0
  -21.5032   25.8657  -11.4538 C   0  0  0  0  0  0
  -21.8554   24.6426  -12.0110 C   0  0  0  0  0  0
  -21.0056   23.5932  -11.4912 C   0  0  0  0  0  0
  -20.0594   24.0727  -10.6061 C   0  0  0  0  0  0
  -20.1876   25.7581  -10.3765 S   0  0  0  0  0  0
  -21.0656   22.1699  -11.7770 C   0  0  0  0  0  0
  -19.9053   21.4715  -12.1303 C   0  0  0  0  0  0
  -19.9729   20.1066  -12.4202 C   0  0  0  0  0  0
  -21.1987   19.4450  -12.3567 C   0  0  0  0  0  0
  -21.2885   17.5984  -12.7498 Br  0  0  0  0  0  0
  -22.3590   20.1341  -12.0066 C   0  0  0  0  0  0
  -22.2929   21.4985  -11.7155 C   0  0  0  0  0  0
  -24.6420   22.7824  -14.9594 H   0  0  0  0  0  0
  -24.5449   24.3878  -14.9789 H   0  0  0  0  0  0
  -22.7936   22.7227  -13.6712 H   0  0  0  0  0  0
  1  2  1  0  0  0
  1 19  1  0  0  0
  1 20  1  0  0  0
  2  3  1  0  0  0
  2 21  1  0  0  0
  3  4  2  0  0  0
  3  8  1  0  0  0
  4  5  1  0  0  0
  5  6  2  0  0  0
  6  7  1  0  0  0
  7  8  2  0  0  0
  7 11  1  0  0  0
  8  9  1  0  0  0
  9 10  2  0  0  0
  9 12  1  0  0  0
 10 11  1  0  0  0
 12 13  2  0  0  0
 12 18  1  0  0  0
 13 14  1  0  0  0
 14 15  2  0  0  0
 15 16  1  0  0  0
 15 17  1  0  0  0
 17 18  2  0  0  0
M  END
>  <CHROM.0>
168.24608604,65.86765677,-43.07744492,62.86579246,168.20038113,176.71800410
81.93109440,-163.19924989

>  <CHROM.1>
164.36185799,-11.33380321,131.14168275,-21.63856520,22.22304920,-12.23607820
1.68578484,-0.63652355,0.17023815

>  <Name>
F0745-0334

>  <RI>
1.24256e+07

>  <Rbt.Current_Directory>
/home/adria/Escritorio/rDock_CMTR_LC/2pxcA_model/inputs_sah

>  <Rbt.Executable>
rbdock ($Id: //depot/dev/client3/rdock/2013.1/src/exe/rbdock.cxx#4 $)

>  <Rbt.Library>
libRbt.so (2013.1, Build901 2013/11/27)

>  <Rbt.Parameter_File>
/home/adria/Escritorio/rDock_2013.1_src/data/scripts/dock.prm

>  <Rbt.Receptor>
sah_rdock.prm

>  <SCORE>
-21.6191

>  <SCORE.INTER>
-19.3997

>  <SCORE.INTER.CONST>
1

>  <SCORE.INTER.POLAR>
-2.01666

>  <SCORE.INTER.REPUL>
0.0136034

>  <SCORE.INTER.ROT>
3

>  <SCORE.INTER.VDW>
-21.0111

>  <SCORE.INTER.norm>
-1.07776

>  <SCORE.INTRA>
-0.910766

>  <SCORE.INTRA.DIHEDRAL>
-3.77743

>  <SCORE.INTRA.DIHEDRAL.0>
12.8415

>  <SCORE.INTRA.POLAR>
0.0106328

>  <SCORE.INTRA.POLAR.0>
-0.0106328

>  <SCORE.INTRA.REPUL>
0

>  <SCORE.INTRA.REPUL.0>
0

>  <SCORE.INTRA.VDW>
0.941796

>  <SCORE.INTRA.VDW.0>
-1.82529

>  <SCORE.INTRA.norm>
-0.0505981

>  <SCORE.RESTR>
0

>  <SCORE.RESTR.CAVITY>
0

>  <SCORE.RESTR.norm>
0

>  <SCORE.SYSTEM>
-1.30864

>  <SCORE.SYSTEM.CONST>
0

>  <SCORE.SYSTEM.DIHEDRAL>
3.6861

>  <SCORE.SYSTEM.POLAR>
-3.5056

>  <SCORE.SYSTEM.VDW>
8.76736

>  <SCORE.SYSTEM.norm>
-0.072702

>  <SCORE.heavy>
18

>  <SCORE.norm>
-1.20106

$$$$
F0745-0334
  rDOCK(R)          3D
libRbt.so/2013.1/901 2013/11/27
 21 23  0  0  0  0  0  0  0  0999 V2000
  -22.0761   19.7431   -9.4944 N   0  0  0  0  0  0
  -22.1840   20.6418  -10.5654 N   0  0  0  0  0  0
  -22.6206   21.9563  -10.3462 C   0  0  0  0  0  0
  -23.4887   22.1842   -9.3241 N   0  0  0  0  0  0
  -23.9288   23.4305   -9.1095 C   0  0  0  0  0  0
  -23.6226   24.5268   -9.8014 N   0  0  0  0  0  0
  -22.7619   24.2800  -10.8006 C   0  0  0  0  0  0
  -22.2070   23.0517  -11.1378 C   0  0  0  0  0  0
  -21.3079   23.2009  -12.2617 C   0  0  0  0  0  0
  -21.2514   24.5027  -12.7208 C   0  0  0  0  0  0
  -22.2459   25.5498  -11.8128 S   0  0  0  0  0  0
  -20.4932   22.1793  -12.8971 C   0  0  0  0  0  0
  -19.9342   21.1472  -12.1347 C   0  0  0  0  0  0
  -19.1380   20.1777  -12.7492 C   0  0  0  0  0  0
  -18.9028   20.2431  -14.1221 C   0  0  0  0  0  0
  -17.8248   18.9309  -14.9518 Br  0  0  0  0  0  0
  -19.4552   21.2688  -14.8880 C   0  0  0  0  0  0
  -20.2523   22.2383  -14.2752 C   0  0  0  0  0  0
  -22.2516   20.2433   -8.6181 H   0  0  0  0  0  0
  -21.0901   19.4637   -9.4119 H   0  0  0  0  0  0
  -22.0600   20.3165  -11.5198 H   0  0  0  0  0  0
  1  2  1  0  0  0
  1 19  1  0  0  0
  1 20  1  0  0  0
  2  3  1  0  0  0
  2 21  1  0  0  0
  3  4  2  0  0  0
  3  8  1  0  0  0
  4  5  1  0  0  0
  5  6  2  0  0  0
  6  7  1  0  0  0
  7  8  2  0  0  0
  7 11  1  0  0  0
  8  9  1  0  0  0
  9 10  2  0  0  0
  9 12  1  0  0  0
 10 11  1  0  0  0
 12 13  2  0  0  0
 12 18  1  0  0  0
 13 14  1  0  0  0
 14 15  2  0  0  0
 15 16  1  0  0  0
 15 17  1  0  0  0
 17 18  2  0  0  0
M  END
>  <CHROM.0>
167.02061733,65.30169349,-130.32774004,63.14563790,-30.95694735,-56.71162305
-156.18791811,-158.49558012

>  <CHROM.1>
-6.40811302,-30.28200559,-34.42854544,-20.66652584,21.67252829,-12.45190734
2.84584131,0.87898885,-0.43103506

>  <Name>
F0745-0334

>  <RI>
1.24256e+07

>  <Rbt.Current_Directory>
/home/adria/Escritorio/rDock_CMTR_LC/2pxcA_model/inputs_sah

>  <Rbt.Executable>
rbdock ($Id: //depot/dev/client3/rdock/2013.1/src/exe/rbdock.cxx#4 $)

>  <Rbt.Library>
libRbt.so (2013.1, Build901 2013/11/27)

>  <Rbt.Parameter_File>
/home/adria/Escritorio/rDock_2013.1_src/data/scripts/dock.prm

>  <Rbt.Receptor>
sah_rdock.prm

>  <SCORE>
-23.9522

>  <SCORE.INTER>
-17.42

>  <SCORE.INTER.CONST>
1

>  <SCORE.INTER.POLAR>
-2.12395

>  <SCORE.INTER.REPUL>
0

>  <SCORE.INTER.ROT>
3

>  <SCORE.INTER.VDW>
-18.5985

>  <SCORE.INTER.norm>
-0.967777

>  <SCORE.INTRA>
-0.477232

>  <SCORE.INTRA.DIHEDRAL>
-3.88588

>  <SCORE.INTRA.DIHEDRAL.0>
12.8415

>  <SCORE.INTRA.POLAR>
-0.0166852

>  <SCORE.INTRA.POLAR.0>
-0.0106328

>  <SCORE.INTRA.REPUL>
0

>  <SCORE.INTRA.REPUL.0>
0

>  <SCORE.INTRA.VDW>
1.52244

>  <SCORE.INTRA.VDW.0>
-1.82529

>  <SCORE.INTRA.norm>
-0.0265129

>  <SCORE.RESTR>
0

>  <SCORE.RESTR.CAVITY>
0

>  <SCORE.RESTR.norm>
0

>  <SCORE.SYSTEM>
-6.05497

>  <SCORE.SYSTEM.CONST>
0

>  <SCORE.SYSTEM.DIHEDRAL>
9.64817

>  <SCORE.SYSTEM.POLAR>
-4.22871

>  <SCORE.SYSTEM.VDW>
3.49855

>  <SCORE.SYSTEM.norm>
-0.336387

>  <SCORE.heavy>
18

>  <SCORE.norm>
-1.33068

$$$$
F0745-0334
  rDOCK(R)          3D
libRbt.so/2013.1/901 2013/11/27
 21 23  0  0  0  0  0  0  0  0999 V2000
  -17.9213   25.0824  -10.1221 N   0  0  0  0  0  0
  -19.0446   24.6505  -10.8420 N   0  0  0  0  0  0
  -20.3301   25.0656  -10.4653 C   0  0  0  0  0  0
  -20.4447   26.1611   -9.6673 N   0  0  0  0  0  0
  -21.6633   26.5629   -9.2844 C   0  0  0  0  0  0
  -22.8326   26.0013   -9.5876 N   0  0  0  0  0  0
  -22.6963   24.9264  -10.3789 C   0  0  0  0  0  0
  -21.5086   24.3985  -10.8697 C   0  0  0  0  0  0
  -21.7802   23.2492  -11.7058 C   0  0  0  0  0  0
  -23.1292   22.9604  -11.7808 C   0  0  0  0  0  0
  -24.0740   24.0573  -10.8786 S   0  0  0  0  0  0
  -20.8296   22.4367  -12.4456 C   0  0  0  0  0  0
  -20.6784   22.6087  -13.8263 C   0  0  0  0  0  0
  -19.7749   21.8125  -14.5343 C   0  0  0  0  0  0
  -19.0265   20.8476  -13.8608 C   0  0  0  0  0  0
  -17.8049   19.7709  -14.8203 Br  0  0  0  0  0  0
  -19.1725   20.6696  -12.4858 C   0  0  0  0  0  0
  -20.0747   21.4655  -11.7764 C   0  0  0  0  0  0
  -17.7724   26.0799  -10.2999 H   0  0  0  0  0  0
  -17.0896   24.6430  -10.5370 H   0  0  0  0  0  0
  -18.9472   23.9444  -11.5658 H   0  0  0  0  0  0
  1  2  1  0  0  0
  1 19  1  0  0  0
  1 20  1  0  0  0
  2  3  1  0  0  0
  2 21  1  0  0  0
  3  4  2  0  0  0
  3  8  1  0  0  0
  4  5  1  0  0  0
  5  6  2  0  0  0
  6  7  1  0  0  0
  7  8  2  0  0  0
  7 11  1  0  0  0
  8  9  1  0  0  0
  9 10  2  0  0  0
  9 12  1  0  0  0
 10 11  1  0  0  0
 12 13  2  0  0  0
 12 18  1  0  0  0
 13 14  1  0  0  0
 14 15  2  0  0  0
 15 16  1  0  0  0
 15 17  1  0  0  0
 17 18  2  0  0  0
M  END
>  <CHROM.0>
178.02096186,-168.80599023,-45.78511124,68.17008387,168.11453969,60.31231672
81.57958026,-166.13476237

>  <CHROM.1>
-70.38504102,18.53818926,-102.02404535,-20.26464890,22.78305017,-12.22246194
-2.10868445,-0.02360868,-2.45005610

>  <Name>
F0745-0334

>  <RI>
1.24256e+07

>  <Rbt.Current_Directory>
/home/adria/Escritorio/rDock_CMTR_LC/2pxcA_model/inputs_sah

>  <Rbt.Executable>
rbdock ($Id: //depot/dev/client3/rdock/2013.1/src/exe/rbdock.cxx#4 $)

>  <Rbt.Library>
libRbt.so (2013.1, Build901 2013/11/27)

>  <Rbt.Parameter_File>
/home/adria/Escritorio/rDock_2013.1_src/data/scripts/dock.prm

>  <Rbt.Receptor>
sah_rdock.prm

>  <SCORE>
-23.1051

>  <SCORE.INTER>
-22.7869

>  <SCORE.INTER.CONST>
1

>  <SCORE.INTER.POLAR>
-2.75398

>  <SCORE.INTER.REPUL>
0.00864782

>  <SCORE.INTER.ROT>
3

>  <SCORE.INTER.VDW>
-21.8666

>  <SCORE.INTER.norm>
-1.26594

>  <SCORE.INTRA>
0.530893

>  <SCORE.INTRA.DIHEDRAL>
1.09596

>  <SCORE.INTRA.DIHEDRAL.0>
12.8415

>  <SCORE.INTRA.POLAR>
0.0106328

>  <SCORE.INTRA.POLAR.0>
-0.0106328

>  <SCORE.INTRA.REPUL>
0

>  <SCORE.INTRA.REPUL.0>
0

>  <SCORE.INTRA.VDW>
-0.0532384

>  <SCORE.INTRA.VDW.0>
-1.82529

>  <SCORE.INTRA.norm>
0.0294941

>  <SCORE.RESTR>
0

>  <SCORE.RESTR.CAVITY>
0

>  <SCORE.RESTR.norm>
0

>  <SCORE.SYSTEM>
-0.849103

>  <SCORE.SYSTEM.CONST>
0

>  <SCORE.SYSTEM.DIHEDRAL>
3.40326

>  <SCORE.SYSTEM.POLAR>
-3.49547

>  <SCORE.SYSTEM.VDW>
9.33387

>  <SCORE.SYSTEM.norm>
-0.0471724

>  <SCORE.heavy>
18

>  <SCORE.norm>
-1.28361

$$$$
F0745-0334
  rDOCK(R)          3D
libRbt.so/2013.1/901 2013/11/27
 21 23  0  0  0  0  0  0  0  0999 V2000
  -24.6077   23.6558  -14.3848 N   0  0  0  0  0  0
  -23.4433   23.5629  -13.6089 N   0  0  0  0  0  0
  -22.9488   24.6893  -12.9355 C   0  0  0  0  0  0
  -23.5685   25.8832  -13.1372 N   0  0  0  0  0  0
  -23.1006   26.9727  -12.5150 C   0  0  0  0  0  0
  -22.0548   27.0486  -11.6934 N   0  0  0  0  0  0
  -21.4623   25.8596  -11.5050 C   0  0  0  0  0  0
  -21.8371   24.6441  -12.0640 C   0  0  0  0  0  0
  -20.9620   23.5894  -11.6000 C   0  0  0  0  0  0
  -19.9771   24.0581  -10.7520 C   0  0  0  0  0  0
  -20.0983   25.7395  -10.4910 S   0  0  0  0  0  0
  -21.0319   22.1704  -11.9043 C   0  0  0  0  0  0
  -19.9106   21.5002  -12.4067 C   0  0  0  0  0  0
  -19.9896   20.1396  -12.7131 C   0  0  0  0  0  0
  -21.1880   19.4540  -12.5173 C   0  0  0  0  0  0
  -21.2933   17.6132  -12.9330 Br  0  0  0  0  0  0
  -22.3096   20.1150  -12.0184 C   0  0  0  0  0  0
  -22.2318   21.4751  -11.7106 C   0  0  0  0  0  0
  -24.6178   22.8921  -15.0670 H   0  0  0  0  0  0
  -24.5316   24.4954  -14.9732 H   0  0  0  0  0  0
  -22.8866   22.7133  -13.6227 H   0  0  0  0  0  0
  1  2  1  0  0  0
  1 19  1  0  0  0
  1 20  1  0  0  0
  2  3  1  0  0  0
  2 21  1  0  0  0
  3  4  2  0  0  0
  3  8  1  0  0  0
  4  5  1  0  0  0
  5  6  2  0  0  0
  6  7  1  0  0  0
  7  8  2  0  0  0
  7 11  1  0  0  0
  8  9  1  0  0  0
  9 10  2  0  0  0
  9 12  1  0  0  0
 10 11  1  0  0  0
 12 13  2  0  0  0
 12 18  1  0  0  0
 13 14  1  0  0  0
 14 15  2  0  0  0
 15 16  1  0  0  0
 15 17  1  0  0  0
 17 18  2  0  0  0
M  END
>  <CHROM.0>
169.10922175,-70.98249362,72.63736662,64.28851536,168.89805354,-176.64594532
81.76372278,-163.07618012

>  <CHROM.1>
158.17050474,-4.84277825,126.84513455,-21.62304279,22.23069112,-12.34028430
1.67881553,-0.60428676,0.18158560

>  <Name>
F0745-0334

>  <RI>
1.24256e+07

>  <Rbt.Current_Directory>
/home/adria/Escritorio/rDock_CMTR_LC/2pxcA_model/inputs_sah

>  <Rbt.Executable>
rbdock ($Id: //depot/dev/client3/rdock/2013.1/src/exe/rbdock.cxx#4 $)

>  <Rbt.Library>
libRbt.so (2013.1, Build901 2013/11/27)

>  <Rbt.Parameter_File>
/home/adria/Escritorio/rDock_2013.1_src/data/scripts/dock.prm

>  <Rbt.Receptor>
sah_rdock.prm

>  <SCORE>
-22.4051

>  <SCORE.INTER>
-19.5105

>  <SCORE.INTER.CONST>
1

>  <SCORE.INTER.POLAR>
-1.98393

>  <SCORE.INTER.REPUL>
0.00370632

>  <SCORE.INTER.ROT>
3

>  <SCORE.INTER.VDW>
-21.1837

>  <SCORE.INTER.norm>
-1.08392

>  <SCORE.INTRA>
-0.812438

>  <SCORE.INTRA.DIHEDRAL>
-3.37046

>  <SCORE.INTRA.DIHEDRAL.0>
12.8415

>  <SCORE.INTRA.POLAR>
0.0106328

>  <SCORE.INTRA.POLAR.0>
-0.0106328

>  <SCORE.INTRA.REPUL>
0

>  <SCORE.INTRA.REPUL.0>
0

>  <SCORE.INTRA.VDW>
0.836639

>  <SCORE.INTRA.VDW.0>
-1.82529

>  <SCORE.INTRA.norm>
-0.0451355

>  <SCORE.RESTR>
0

>  <SCORE.RESTR.CAVITY>
0

>  <SCORE.RESTR.norm>
0

>  <SCORE.SYSTEM>
-2.08209

>  <SCORE.SYSTEM.CONST>
0

>  <SCORE.SYSTEM.DIHEDRAL>
3.69252

>  <SCORE.SYSTEM.POLAR>
-3.84632

>  <SCORE.SYSTEM.REPUL>
0.0347354

>  <SCORE.SYSTEM.VDW>
8.97545

>  <SCORE.SYSTEM.norm>
-0.115672

>  <SCORE.heavy>
18

>  <SCORE.norm>
-1.24473

$$$$
F0745-0334
  rDOCK(R)          3D
libRbt.so/2013.1/901 2013/11/27
 21 23  0  0  0  0  0  0  0  0999 V2000
  -18.0451   25.1209  -10.0880 N   0  0  0  0  0  0
  -19.2148   24.7888  -10.7866 N   0  0  0  0  0  0
  -20.4700   25.1620  -10.2847 C   0  0  0  0  0  0
  -20.5472   26.2755   -9.5073 N   0  0  0  0  0  0
  -21.7346   26.6384   -9.0060 C   0  0  0  0  0  0
  -22.9037   26.0205   -9.1672 N   0  0  0  0  0  0
  -22.8052   24.9286   -9.9408 C   0  0  0  0  0  0
  -21.6543   24.4352  -10.5428 C   0  0  0  0  0  0
  -21.9625   23.2511  -11.3151 C   0  0  0  0  0  0
  -23.2977   22.9051  -11.2372 C   0  0  0  0  0  0
  -24.1886   23.9890  -10.2671 S   0  0  0  0  0  0
  -21.0611   22.4562  -12.1317 C   0  0  0  0  0  0
  -20.6664   22.9115  -13.3949 C   0  0  0  0  0  0
  -19.8130   22.1345  -14.1819 C   0  0  0  0  0  0
  -19.3577   20.9059  -13.7045 C   0  0  0  0  0  0
  -18.2035   19.8556  -14.7709 Br  0  0  0  0  0  0
  -19.7474   20.4451  -12.4478 C   0  0  0  0  0  0
  -20.5998   21.2213  -11.6594 C   0  0  0  0  0  0
  -17.7568   26.0685  -10.3484 H   0  0  0  0  0  0
  -17.2816   24.5352  -10.4498 H   0  0  0  0  0  0
  -19.1700   24.1773  -11.5965 H   0  0  0  0  0  0
  1  2  1  0  0  0
  1 19  1  0  0  0
  1 20  1  0  0  0
  2  3  1  0  0  0
  2 21  1  0  0  0
  3  4  2  0  0  0
  3  8  1  0  0  0
  4  5  1  0  0  0
  5  6  2  0  0  0
  6  7  1  0  0  0
  7  8  2  0  0  0
  7 11  1  0  0  0
  8  9  1  0  0  0
  9 10  2  0  0  0
  9 12  1  0  0  0
 10 11  1  0  0  0
 12 13  2  0  0  0
 12 18  1  0  0  0
 13 14  1  0  0  0
 14 15  2  0  0  0
 15 16  1  0  0  0
 15 17  1  0  0  0
 17 18  2  0  0  0
M  END
>  <CHROM.0>
-56.11555436,-72.59677404,73.13104149,63.92710515,15.30245289,-58.75908116
-158.12768139,-162.28257650

>  <CHROM.1>
-85.17227261,28.14880928,-76.84095289,-20.49483885,22.82637992,-11.98095324
-2.07661878,-0.16529230,-2.49007473

>  <Name>
F0745-0334

>  <RI>
1.24256e+07

>  <Rbt.Current_Directory>
/home/adria/Escritorio/rDock_CMTR_LC/2pxcA_model/inputs_sah

>  <Rbt.Executable>
rbdock ($Id: //depot/dev/client3/rdock/2013.1/src/exe/rbdock.cxx#4 $)

>  <Rbt.Library>
libRbt.so (2013.1, Build901 2013/11/27)

>  <Rbt.Parameter_File>
/home/adria/Escritorio/rDock_2013.1_src/data/scripts/dock.prm

>  <Rbt.Receptor>
sah_rdock.prm

>  <SCORE>
-14.7913

>  <SCORE.INTER>
-19.907

>  <SCORE.INTER.CONST>
1

>  <SCORE.INTER.POLAR>
-2.36191

>  <SCORE.INTER.REPUL>
0.270997

>  <SCORE.INTER.ROT>
3

>  <SCORE.INTER.VDW>
-21.6315

>  <SCORE.INTER.norm>
-1.10595

>  <SCORE.INTRA>
1.19405

>  <SCORE.INTRA.DIHEDRAL>
2.46689

>  <SCORE.INTRA.DIHEDRAL.0>
12.8415

>  <SCORE.INTRA.POLAR>
0.0106328

>  <SCORE.INTRA.POLAR.0>
-0.0106328

>  <SCORE.INTRA.REPUL>
0

>  <SCORE.INTRA.REPUL.0>
0

>  <SCORE.INTRA.VDW>
-0.0755461

>  <SCORE.INTRA.VDW.0>
-1.82529

>  <SCORE.INTRA.norm>
0.0663362

>  <SCORE.RESTR>
0

>  <SCORE.RESTR.CAVITY>
0

>  <SCORE.RESTR.norm>
0

>  <SCORE.SYSTEM>
3.92164

>  <SCORE.SYSTEM.CONST>
0

>  <SCORE.SYSTEM.DIHEDRAL>
8.9243

>  <SCORE.SYSTEM.POLAR>
-3.97702

>  <SCORE.SYSTEM.REPUL>
0.0378075

>  <SCORE.SYSTEM.VDW>
12.7923

>  <SCORE.SYSTEM.norm>
0.217869

>  <SCORE.heavy>
18

>  <SCORE.norm>
-0.821741

$$$$
F0745-0334
  rDOCK(R)          3D
libRbt.so/2013.1/901 2013/11/27
 21 23  0  0  0  0  0  0  0  0999 V2000
  -20.8406   17.6768  -16.1439 N   0  0  0  0  0  0
  -19.4548   17.4623  -16.1381 N   0  0  0  0  0  0
  -18.5708   18.5364  -16.3157 C   0  0  0  0  0  0
  -19.0073   19.7871  -16.0065 N   0  0  0  0  0  0
  -18.1825   20.8268  -16.1847 C   0  0  0  0  0  0
  -16.9364   20.7996  -16.6546 N   0  0  0  0  0  0
  -16.5251   19.5567  -16.9480 C   0  0  0  0  0  0
  -17.2536   18.3824  -16.8043 C   0  0  0  0  0  0
  -16.4544   17.2457  -17.2076 C   0  0  0  0  0  0
  -15.1987   17.6158  -17.6493 C   0  0  0  0  0  0
  -14.9593   19.3028  -17.5700 S   0  0  0  0  0  0
  -16.8173   15.8392  -17.1717 C   0  0  0  0  0  0
  -17.9203   15.3763  -17.8984 C   0  0  0  0  0  0
  -18.2739   14.0258  -17.8460 C   0  0  0  0  0  0
  -17.5251   13.1435  -17.0680 C   0  0  0  0  0  0
  -18.0053   11.3168  -16.9980 Br  0  0  0  0  0  0
  -16.4259   13.5974  -16.3405 C   0  0  0  0  0  0
  -16.0705   14.9470  -16.3926 C   0  0  0  0  0  0
  -21.1821   17.6878  -15.1785 H   0  0  0  0  0  0
  -21.2898   16.8425  -16.5426 H   0  0  0  0  0  0
  -19.0843   16.5166  -16.1226 H   0  0  0  0  0  0
  1  2  1  0  0  0
  1 19  1  0  0  0
  1 20  1  0  0  0
  2  3  1  0  0  0
  2 21  1  0  0  0
  3  4  2  0  0  0
  3  8  1  0  0  0
  4  5  1  0  0  0
  5  6  2  0  0  0
  6  7  1  0  0  0
  7  8  2  0  0  0
  7 11  1  0  0  0
  8  9  1  0  0  0
  9 10  2  0  0  0
  9 12  1  0  0  0
 10 11  1  0  0  0
 12 13  2  0  0  0
 12 18  1  0  0  0
 13 14  1  0  0  0
 14 15  2  0  0  0
 15 16  1  0  0  0
 15 17  1  0  0  0
 17 18  2  0  0  0
M  END
>  <CHROM.0>
-177.89203245,67.42382324,-129.70388175,63.42592403,-29.81018644,62.63761718
82.03060502,-161.81935898

>  <CHROM.1>
-101.03127958,23.74726882,59.91681017,-17.48459436,15.95199205,-16.90767706
1.46976148,0.25189116,0.05636163

>  <Name>
F0745-0334

>  <RI>
1.24256e+07

>  <Rbt.Current_Directory>
/home/adria/Escritorio/rDock_CMTR_LC/2pxcA_model/inputs_sah

>  <Rbt.Executable>
rbdock ($Id: //depot/dev/client3/rdock/2013.1/src/exe/rbdock.cxx#4 $)

>  <Rbt.Library>
libRbt.so (2013.1, Build901 2013/11/27)

>  <Rbt.Parameter_File>
/home/adria/Escritorio/rDock_2013.1_src/data/scripts/dock.prm

>  <Rbt.Receptor>
sah_rdock.prm

>  <SCORE>
-17.0894

>  <SCORE.INTER>
-11.0529

>  <SCORE.INTER.CONST>
1

>  <SCORE.INTER.POLAR>
-1.49305

>  <SCORE.INTER.REPUL>
0.0323241

>  <SCORE.INTER.ROT>
3

>  <SCORE.INTER.VDW>
-14.5381

>  <SCORE.INTER.norm>
-0.614048

>  <SCORE.INTRA>
0.101625

>  <SCORE.INTRA.DIHEDRAL>
-0.785998

>  <SCORE.INTRA.DIHEDRAL.0>
12.8415

>  <SCORE.INTRA.POLAR>
0.0106328

>  <SCORE.INTRA.POLAR.0>
-0.0106328

>  <SCORE.INTRA.REPUL>
0

>  <SCORE.INTRA.REPUL.0>
0

>  <SCORE.INTRA.VDW>
0.458472

>  <SCORE.INTRA.VDW.0>
-1.82529

>  <SCORE.INTRA.norm>
0.00564582

>  <SCORE.RESTR>
0.0889951

>  <SCORE.RESTR.CAVITY>
0.0889951

>  <SCORE.RESTR.norm>
0.00494417

>  <SCORE.SYSTEM>
-6.22718

>  <SCORE.SYSTEM.CONST>
0

>  <SCORE.SYSTEM.DIHEDRAL>
8.9118

>  <SCORE.SYSTEM.POLAR>
-4.14292

>  <SCORE.SYSTEM.VDW>
3.40285

>  <SCORE.SYSTEM.norm>
-0.345954

>  <SCORE.heavy>
18

>  <SCORE.norm>
-0.949412

$$$$
F0745-0334
  rDOCK(R)          3D
libRbt.so/2013.1/901 2013/11/27
 21 23  0  0  0  0  0  0  0  0999 V2000
  -20.9021   17.9913  -11.0485 N   0  0  0  0  0  0
  -20.6719   19.0839  -11.8967 N   0  0  0  0  0  0
  -19.9553   18.9156  -13.0904 C   0  0  0  0  0  0
  -19.4944   17.6726  -13.3946 N   0  0  0  0  0  0
  -18.7945   17.4959  -14.5224 C   0  0  0  0  0  0
  -18.4662   18.4199  -15.4239 N   0  0  0  0  0  0
  -18.9349   19.6364  -15.1066 C   0  0  0  0  0  0
  -19.6852   19.9742  -13.9871 C   0  0  0  0  0  0
  -20.0175   21.3822  -14.0142 C   0  0  0  0  0  0
  -19.4904   22.0258  -15.1171 C   0  0  0  0  0  0
  -18.6194   20.9632  -16.1280 S   0  0  0  0  0  0
  -20.8220   22.1297  -13.0629 C   0  0  0  0  0  0
  -22.0972   21.6758  -12.7067 C   0  0  0  0  0  0
  -22.8722   22.4083  -11.8044 C   0  0  0  0  0  0
  -22.3711   23.5911  -11.2619 C   0  0  0  0  0  0
  -23.4213   24.5812  -10.0416 Br  0  0  0  0  0  0
  -21.1023   24.0503  -11.6127 C   0  0  0  0  0  0
  -20.3258   23.3185  -12.5139 C   0  0  0  0  0  0
  -21.8533   18.0523  -10.6739 H   0  0  0  0  0  0
  -20.3129   18.1069  -10.2140 H   0  0  0  0  0  0
  -20.9192   20.0231  -11.5988 H   0  0  0  0  0  0
  1  2  1  0  0  0
  1 19  1  0  0  0
  1 20  1  0  0  0
  2  3  1  0  0  0
  2 21  1  0  0  0
  3  4  2  0  0  0
  3  8  1  0  0  0
  4  5  1  0  0  0
  5  6  2  0  0  0
  6  7  1  0  0  0
  7  8  2  0  0  0
  7 11  1  0  0  0
  8  9  1  0  0  0
  9 10  2  0  0  0
  9 12  1  0  0  0
 10 11  1  0  0  0
 12 13  2  0  0  0
 12 18  1  0  0  0
 13 14  1  0  0  0
 14 15  2  0  0  0
 15 16  1  0  0  0
 15 17  1  0  0  0
 17 18  2  0  0  0
M  END
>  <CHROM.0>
-59.30296941,-71.70454163,-167.89790437,65.08445618,-30.04594605,62.34935241
-159.15204329,-160.38516190

>  <CHROM.1>
-140.33909241,-0.08472124,-51.73230746,-20.95928176,21.58120384,-12.65109447
0.46074660,-0.95486876,2.81498436

>  <Name>
F0745-0334

>  <RI>
1.24256e+07

>  <Rbt.Current_Directory>
/home/adria/Escritorio/rDock_CMTR_LC/2pxcA_model/inputs_sah

>  <Rbt.Executable>
rbdock ($Id: //depot/dev/client3/rdock/2013.1/src/exe/rbdock.cxx#4 $)

>  <Rbt.Library>
libRbt.so (2013.1, Build901 2013/11/27)

>  <Rbt.Parameter_File>
/home/adria/Escritorio/rDock_2013.1_src/data/scripts/dock.prm

>  <Rbt.Receptor>
sah_rdock.prm

>  <SCORE>
-23.5175

>  <SCORE.INTER>
-15.0826

>  <SCORE.INTER.CONST>
1

>  <SCORE.INTER.POLAR>
-1.69525

>  <SCORE.INTER.REPUL>
0.0613038

>  <SCORE.INTER.ROT>
3

>  <SCORE.INTER.VDW>
-18.0253

>  <SCORE.INTER.norm>
-0.837924

>  <SCORE.INTRA>
-0.851976

>  <SCORE.INTRA.DIHEDRAL>
-4.09711

>  <SCORE.INTRA.DIHEDRAL.0>
12.8415

>  <SCORE.INTRA.POLAR>
0.0106328

>  <SCORE.INTRA.POLAR.0>
-0.0106328

>  <SCORE.INTRA.REPUL>
0

>  <SCORE.INTRA.REPUL.0>
0

>  <SCORE.INTRA.VDW>
1.16043

>  <SCORE.INTRA.VDW.0>
-1.82529

>  <SCORE.INTRA.norm>
-0.047332

>  <SCORE.RESTR>
0

>  <SCORE.RESTR.CAVITY>
0

>  <SCORE.RESTR.norm>
0

>  <SCORE.SYSTEM>
-7.58286

>  <SCORE.SYSTEM.CONST>
0

>  <SCORE.SYSTEM.DIHEDRAL>
6.25005

>  <SCORE.SYSTEM.POLAR>
-3.94688

>  <SCORE.SYSTEM.REPUL>
0.0361405

>  <SCORE.SYSTEM.VDW>
2.5308

>  <SCORE.SYSTEM.norm>
-0.42127

>  <SCORE.heavy>
18

>  <SCORE.norm>
-1.30653

$$$$
F0745-0334
  rDOCK(R)          3D
libRbt.so/2013.1/901 2013/11/27
 21 23  0  0  0  0  0  0  0  0999 V2000
  -26.0924   23.6541  -13.0640 N   0  0  0  0  0  0
  -25.1384   23.7599  -12.0418 N   0  0  0  0  0  0
  -24.2534   24.8473  -12.0082 C   0  0  0  0  0  0
  -24.4472   25.8623  -12.8926 N   0  0  0  0  0  0
  -23.6028   26.9015  -12.8860 C   0  0  0  0  0  0
  -22.5435   27.0780  -12.0979 N   0  0  0  0  0  0
  -22.3744   26.0682  -11.2308 C   0  0  0  0  0  0
  -23.1697   24.9359  -11.1053 C   0  0  0  0  0  0
  -22.6728   24.0915  -10.0406 C   0  0  0  0  0  0
  -21.5372   24.6074   -9.4466 C   0  0  0  0  0  0
  -21.0700   26.0965  -10.1350 S   0  0  0  0  0  0
  -23.2343   22.8432   -9.5532 C   0  0  0  0  0  0
  -24.1749   22.8494   -8.5168 C   0  0  0  0  0  0
  -24.6980   21.6445   -8.0414 C   0  0  0  0  0  0
  -24.2795   20.4384   -8.6025 C   0  0  0  0  0  0
  -24.9881   18.8091   -7.9578 Br  0  0  0  0  0  0
  -23.3421   20.4241   -9.6343 C   0  0  0  0  0  0
  -22.8189   21.6279  -10.1113 C   0  0  0  0  0  0
  -26.9683   23.2990  -12.6697 H   0  0  0  0  0  0
  -25.7972   22.9003  -13.6977 H   0  0  0  0  0  0
  -25.0036   22.9945  -11.3875 H   0  0  0  0  0  0
  1  2  1  0  0  0
  1 19  1  0  0  0
  1 20  1  0  0  0
  2  3  1  0  0  0
  2 21  1  0  0  0
  3  4  2  0  0  0
  3  8  1  0  0  0
  4  5  1  0  0  0
  5  6  2  0  0  0
  6  7  1  0  0  0
  7  8  2  0  0  0
  7 11  1  0  0  0
  8  9  1  0  0  0
  9 10  2  0  0  0
  9 12  1  0  0  0
 10 11  1  0  0  0
 12 13  2  0  0  0
 12 18  1  0  0  0
 13 14  1  0  0  0
 14 15  2  0  0  0
 15 16  1  0  0  0
 15 17  1  0  0  0
 17 18  2  0  0  0
M  END
>  <CHROM.0>
-60.10149411,-166.14753964,-44.06837257,63.07476318,-29.63635941,-57.78689601
83.26943223,-161.02844539

>  <CHROM.1>
-141.03076576,7.50153081,-90.09546663,-23.76305822,22.82903879,-10.00978645
1.25815624,-0.63693525,-0.66832474

>  <Name>
F0745-0334

>  <RI>
1.24256e+07

>  <Rbt.Current_Directory>
/home/adria/Escritorio/rDock_CMTR_LC/2pxcA_model/inputs_sah

>  <Rbt.Executable>
rbdock ($Id: //depot/dev/client3/rdock/2013.1/src/exe/rbdock.cxx#4 $)

>  <Rbt.Library>
libRbt.so (2013.1, Build901 2013/11/27)

>  <Rbt.Parameter_File>
/home/adria/Escritorio/rDock_2013.1_src/data/scripts/dock.prm

>  <Rbt.Receptor>
sah_rdock.prm

>  <SCORE>
-19.9093

>  <SCORE.INTER>
-14.1337

>  <SCORE.INTER.CONST>
1

>  <SCORE.INTER.POLAR>
-2.55006

>  <SCORE.INTER.REPUL>
0

>  <SCORE.INTER.ROT>
3

>  <SCORE.INTER.VDW>
-13.8635

>  <SCORE.INTER.norm>
-0.785203

>  <SCORE.INTRA>
0.318621

>  <SCORE.INTRA.DIHEDRAL>
0.771257

>  <SCORE.INTRA.DIHEDRAL.0>
12.8415

>  <SCORE.INTRA.POLAR>
0.0106328

>  <SCORE.INTRA.POLAR.0>
-0.0106328

>  <SCORE.INTRA.REPUL>
0

>  <SCORE.INTRA.REPUL.0>
0

>  <SCORE.INTRA.VDW>
-0.103159

>  <SCORE.INTRA.VDW.0>
-1.82529

>  <SCORE.INTRA.norm>
0.0177012

>  <SCORE.RESTR>
0.12365

>  <SCORE.RESTR.CAVITY>
0.12365

>  <SCORE.RESTR.norm>
0.00686945

>  <SCORE.SYSTEM>
-6.2179

>  <SCORE.SYSTEM.CONST>
0

>  <SCORE.SYSTEM.DIHEDRAL>
6.91039

>  <SCORE.SYSTEM.POLAR>
-3.69284

>  <SCORE.SYSTEM.VDW>
2.88255

>  <SCORE.SYSTEM.norm>
-0.345439

>  <SCORE.heavy>
18

>  <SCORE.norm>
-1.10607

$$$$
F0745-0334
  rDOCK(R)          3D
libRbt.so/2013.1/901 2013/11/27
 21 23  0  0  0  0  0  0  0  0999 V2000
  -24.6251   23.6076  -14.2537 N   0  0  0  0  0  0
  -23.4135   23.5328  -13.5515 N   0  0  0  0  0  0
  -22.9121   24.6583  -12.8818 C   0  0  0  0  0  0
  -23.5283   25.8542  -13.0826 N   0  0  0  0  0  0
  -23.0537   26.9429  -12.4639 C   0  0  0  0  0  0
  -22.0042   27.0161  -11.6468 N   0  0  0  0  0  0
  -21.4153   25.8252  -11.4592 C   0  0  0  0  0  0
  -21.7969   24.6103  -12.0149 C   0  0  0  0  0  0
  -20.9237   23.5531  -11.5530 C   0  0  0  0  0  0
  -19.9336   24.0193  -10.7098 C   0  0  0  0  0  0
  -20.0476   25.7015  -10.4507 S   0  0  0  0  0  0
  -21.0002   22.1339  -11.8551 C   0  0  0  0  0  0
  -19.8662   21.4451  -12.3005 C   0  0  0  0  0  0
  -19.9507   20.0844  -12.6054 C   0  0  0  0  0  0
  -21.1672   19.4174  -12.4646 C   0  0  0  0  0  0
  -21.2799   17.5765  -12.8780 Br  0  0  0  0  0  0
  -22.3014   20.0970  -12.0226 C   0  0  0  0  0  0
  -22.2182   21.4571  -11.7165 C   0  0  0  0  0  0
  -24.6487   22.8676  -14.9612 H   0  0  0  0  0  0
  -24.6148   24.4690  -14.8148 H   0  0  0  0  0  0
  -22.8342   22.7011  -13.6193 H   0  0  0  0  0  0
  1  2  1  0  0  0
  1 19  1  0  0  0
  1 20  1  0  0  0
  2  3  1  0  0  0
  2 21  1  0  0  0
  3  4  2  0  0  0
  3  8  1  0  0  0
  4  5  1  0  0  0
  5  6  2  0  0  0
  6  7  1  0  0  0
  7  8  2  0  0  0
  7 11  1  0  0  0
  8  9  1  0  0  0
  9 10  2  0  0  0
  9 12  1  0  0  0
 10 11  1  0  0  0
 12 13  2  0  0  0
 12 18  1  0  0  0
 13 14  1  0  0  0
 14 15  2  0  0  0
 15 16  1  0  0  0
 15 17  1  0  0  0
 17 18  2  0  0  0
M  END
>  <CHROM.0>
-59.60429938,-166.15063829,-8.18872990,61.85286459,168.52241388,-178.85861525
-36.47709083,-161.31034261

>  <CHROM.1>
157.38663409,-8.85386920,129.90164483,-21.59439994,22.19497016,-12.28593029
1.67386783,-0.59228348,0.17724036

>  <Name>
F0745-0334

>  <RI>
1.24256e+07

>  <Rbt.Current_Directory>
/home/adria/Escritorio/rDock_CMTR_LC/2pxcA_model/inputs_sah

>  <Rbt.Executable>
rbdock ($Id: //depot/dev/client3/rdock/2013.1/src/exe/rbdock.cxx#4 $)

>  <Rbt.Library>
libRbt.so (2013.1, Build901 2013/11/27)

>  <Rbt.Parameter_File>
/home/adria/Escritorio/rDock_2013.1_src/data/scripts/dock.prm

>  <Rbt.Receptor>
sah_rdock.prm

>  <SCORE>
-21.9993

>  <SCORE.INTER>
-19.8727

>  <SCORE.INTER.CONST>
1

>  <SCORE.INTER.POLAR>
-2.00077

>  <SCORE.INTER.REPUL>
0.0341593

>  <SCORE.INTER.ROT>
3

>  <SCORE.INTER.VDW>
-21.6409

>  <SCORE.INTER.norm>
-1.10404

>  <SCORE.INTRA>
-0.854707

>  <SCORE.INTRA.DIHEDRAL>
-3.71033

>  <SCORE.INTRA.DIHEDRAL.0>
12.8415

>  <SCORE.INTRA.POLAR>
0.0106328

>  <SCORE.INTRA.POLAR.0>
-0.0106328

>  <SCORE.INTRA.REPUL>
0

>  <SCORE.INTRA.REPUL.0>
0

>  <SCORE.INTRA.VDW>
0.964306

>  <SCORE.INTRA.VDW.0>
-1.82529

>  <SCORE.INTRA.norm>
-0.0474837

>  <SCORE.RESTR>
0

>  <SCORE.RESTR.CAVITY>
0

>  <SCORE.RESTR.norm>
0

>  <SCORE.SYSTEM>
-1.27191

>  <SCORE.SYSTEM.CONST>
0

>  <SCORE.SYSTEM.DIHEDRAL>
6.68883

>  <SCORE.SYSTEM.POLAR>
-4.23156

>  <SCORE.SYSTEM.VDW>
9.77099

>  <SCORE.SYSTEM.norm>
-0.0706615

>  <SCORE.heavy>
18

>  <SCORE.norm>
-1.22218

$$$$
F0745-0334
  rDOCK(R)          3D
libRbt.so/2013.1/901 2013/11/27
 21 23  0  0  0  0  0  0  0  0999 V2000
  -20.5060   17.5495  -11.3257 N   0  0  0  0  0  0
  -20.7660   18.8042  -11.8954 N   0  0  0  0  0  0
  -21.5172   19.7587  -11.1944 C   0  0  0  0  0  0
  -21.9435   19.4481   -9.9407 N   0  0  0  0  0  0
  -22.6755   20.3408   -9.2623 C   0  0  0  0  0  0
  -23.0678   21.5453   -9.6740 N   0  0  0  0  0  0
  -22.6323   21.8327  -10.9101 C   0  0  0  0  0  0
  -21.8561   21.0222  -11.7293 C   0  0  0  0  0  0
  -21.5756   21.6965  -12.9784 C   0  0  0  0  0  0
  -22.1635   22.9449  -13.0458 C   0  0  0  0  0  0
  -23.0304   23.3262  -11.6271 S   0  0  0  0  0  0
  -20.7658   21.2232  -14.0880 C   0  0  0  0  0  0
  -19.6241   21.9310  -14.4808 C   0  0  0  0  0  0
  -18.8594   21.4797  -15.5592 C   0  0  0  0  0  0
  -19.2381   20.3239  -16.2413 C   0  0  0  0  0  0
  -18.2026   19.7151  -17.7006 Br  0  0  0  0  0  0
  -20.3748   19.6141  -15.8567 C   0  0  0  0  0  0
  -21.1398   20.0635  -14.7781 C   0  0  0  0  0  0
  -21.3893   17.0446  -11.2092 H   0  0  0  0  0  0
  -20.1912   17.6986  -10.3584 H   0  0  0  0  0  0
  -20.5139   18.9886  -12.8620 H   0  0  0  0  0  0
  1  2  1  0  0  0
  1 19  1  0  0  0
  1 20  1  0  0  0
  2  3  1  0  0  0
  2 21  1  0  0  0
  3  4  2  0  0  0
  3  8  1  0  0  0
  4  5  1  0  0  0
  5  6  2  0  0  0
  6  7  1  0  0  0
  7  8  2  0  0  0
  7 11  1  0  0  0
  8  9  1  0  0  0
  9 10  2  0  0  0
  9 12  1  0  0  0
 10 11  1  0  0  0
 12 13  2  0  0  0
 12 18  1  0  0  0
 13 14  1  0  0  0
 14 15  2  0  0  0
 15 16  1  0  0  0
 15 17  1  0  0  0
 17 18  2  0  0  0
M  END
>  <CHROM.0>
-178.40248976,65.80168370,-8.71276761,-60.28703100,168.27734950,62.05078882
-24.58972608,-161.49295750

>  <CHROM.1>
64.67840820,2.08760255,-118.59020376,-20.61563987,20.60313625,-13.78821191
-2.74321951,0.98541021,-0.66924356

>  <Name>
F0745-0334

>  <RI>
1.24256e+07

>  <Rbt.Current_Directory>
/home/adria/Escritorio/rDock_CMTR_LC/2pxcA_model/inputs_sah

>  <Rbt.Executable>
rbdock ($Id: //depot/dev/client3/rdock/2013.1/src/exe/rbdock.cxx#4 $)

>  <Rbt.Library>
libRbt.so (2013.1, Build901 2013/11/27)

>  <Rbt.Parameter_File>
/home/adria/Escritorio/rDock_2013.1_src/data/scripts/dock.prm

>  <Rbt.Receptor>
sah_rdock.prm

>  <SCORE>
-14.3403

>  <SCORE.INTER>
-14.0696

>  <SCORE.INTER.CONST>
1

>  <SCORE.INTER.POLAR>
-1.60048

>  <SCORE.INTER.REPUL>
0

>  <SCORE.INTER.ROT>
3

>  <SCORE.INTER.VDW>
-17.028

>  <SCORE.INTER.norm>
-0.781647

>  <SCORE.INTRA>
0.144916

>  <SCORE.INTRA.DIHEDRAL>
-2.23693

>  <SCORE.INTRA.DIHEDRAL.0>
12.8415

>  <SCORE.INTRA.POLAR>
0.0106328

>  <SCORE.INTRA.POLAR.0>
-0.0106328

>  <SCORE.INTRA.REPUL>
0

>  <SCORE.INTRA.REPUL.0>
0

>  <SCORE.INTRA.VDW>
1.22723

>  <SCORE.INTRA.VDW.0>
-1.82529

>  <SCORE.INTRA.norm>
0.00805089

>  <SCORE.RESTR>
0

>  <SCORE.RESTR.CAVITY>
0

>  <SCORE.RESTR.norm>
0

>  <SCORE.SYSTEM>
-0.415574

>  <SCORE.SYSTEM.CONST>
0

>  <SCORE.SYSTEM.DIHEDRAL>
7.04826

>  <SCORE.SYSTEM.POLAR>
-4.12794

>  <SCORE.SYSTEM.VDW>
10.0953

>  <SCORE.SYSTEM.norm>
-0.0230874

>  <SCORE.heavy>
18

>  <SCORE.norm>
-0.796684

$$$$
F0745-0334
  rDOCK(R)          3D
libRbt.so/2013.1/901 2013/11/27
 21 23  0  0  0  0  0  0  0  0999 V2000
  -24.5165   23.6898  -14.4163 N   0  0  0  0  0  0
  -23.3151   23.6104  -13.6974 N   0  0  0  0  0  0
  -22.8533   24.7136  -12.9651 C   0  0  0  0  0  0
  -23.5258   25.8902  -13.0811 N   0  0  0  0  0  0
  -23.0901   26.9587  -12.4017 C   0  0  0  0  0  0
  -22.0311   27.0288  -11.5968 N   0  0  0  0  0  0
  -21.3861   25.8568  -11.4932 C   0  0  0  0  0  0
  -21.7223   24.6628  -12.1191 C   0  0  0  0  0  0
  -20.7947   23.6199  -11.7375 C   0  0  0  0  0  0
  -19.8122   24.0775  -10.8808 C   0  0  0  0  0  0
  -19.9971   25.7332  -10.5143 S   0  0  0  0  0  0
  -20.8126   22.2204  -12.1275 C   0  0  0  0  0  0
  -20.4282   21.8428  -13.4192 C   0  0  0  0  0  0
  -20.4639   20.4972  -13.7930 C   0  0  0  0  0  0
  -20.8837   19.5344  -12.8757 C   0  0  0  0  0  0
  -20.9318   17.7145  -13.3833 Br  0  0  0  0  0  0
  -21.2692   19.9030  -11.5876 C   0  0  0  0  0  0
  -21.2332   21.2477  -11.2121 C   0  0  0  0  0  0
  -25.2971   23.4747  -13.7894 H   0  0  0  0  0  0
  -24.5356   22.9137  -15.0903 H   0  0  0  0  0  0
  -22.7139   22.7973  -13.7952 H   0  0  0  0  0  0
  1  2  1  0  0  0
  1 19  1  0  0  0
  1 20  1  0  0  0
  2  3  1  0  0  0
  2 21  1  0  0  0
  3  4  2  0  0  0
  3  8  1  0  0  0
  4  5  1  0  0  0
  5  6  2  0  0  0
  6  7  1  0  0  0
  7  8  2  0  0  0
  7 11  1  0  0  0
  8  9  1  0  0  0
  9 10  2  0  0  0
  9 12  1  0  0  0
 10 11  1  0  0  0
 12 13  2  0  0  0
 12 18  1  0  0  0
 13 14  1  0  0  0
 14 15  2  0  0  0
 15 16  1  0  0  0
 15 17  1  0  0  0
 17 18  2  0  0  0
M  END
>  <CHROM.0>
-59.81395228,-167.40915133,73.07250049,61.93331042,-29.85058413,-177.79465315
83.25506238,-160.94811931

>  <CHROM.1>
-85.16101392,-6.49031179,74.37685756,-21.42604951,22.27367787,-12.52749711
1.72387483,-0.65152536,0.27187586

>  <Name>
F0745-0334

>  <RI>
1.24256e+07

>  <Rbt.Current_Directory>
/home/adria/Escritorio/rDock_CMTR_LC/2pxcA_model/inputs_sah

>  <Rbt.Executable>
rbdock ($Id: //depot/dev/client3/rdock/2013.1/src/exe/rbdock.cxx#4 $)

>  <Rbt.Library>
libRbt.so (2013.1, Build901 2013/11/27)

>  <Rbt.Parameter_File>
/home/adria/Escritorio/rDock_2013.1_src/data/scripts/dock.prm

>  <Rbt.Receptor>
sah_rdock.prm

>  <SCORE>
-25.9635

>  <SCORE.INTER>
-19.8506

>  <SCORE.INTER.CONST>
1

>  <SCORE.INTER.POLAR>
-1.86653

>  <SCORE.INTER.REPUL>
0

>  <SCORE.INTER.ROT>
3

>  <SCORE.INTER.VDW>
-21.9044

>  <SCORE.INTER.norm>
-1.10281

>  <SCORE.INTRA>
0.407156

>  <SCORE.INTRA.DIHEDRAL>
0.381404

>  <SCORE.INTRA.DIHEDRAL.0>
12.8415

>  <SCORE.INTRA.POLAR>
0.0106328

>  <SCORE.INTRA.POLAR.0>
-0.0106328

>  <SCORE.INTRA.REPUL>
0

>  <SCORE.INTRA.REPUL.0>
0

>  <SCORE.INTRA.VDW>
0.180303

>  <SCORE.INTRA.VDW.0>
-1.82529

>  <SCORE.INTRA.norm>
0.0226198

>  <SCORE.RESTR>
0

>  <SCORE.RESTR.CAVITY>
0

>  <SCORE.RESTR.norm>
0

>  <SCORE.SYSTEM>
-6.5201

>  <SCORE.SYSTEM.CONST>
0

>  <SCORE.SYSTEM.DIHEDRAL>
6.5077

>  <SCORE.SYSTEM.POLAR>
-3.75442

>  <SCORE.SYSTEM.VDW>
2.99107

>  <SCORE.SYSTEM.norm>
-0.362228

>  <SCORE.heavy>
18

>  <SCORE.norm>
-1.44242

$$$$
F0745-0334
  rDOCK(R)          3D
libRbt.so/2013.1/901 2013/11/27
 21 23  0  0  0  0  0  0  0  0999 V2000
  -18.0484   25.0982  -10.0995 N   0  0  0  0  0  0
  -19.2167   24.7784  -10.8062 N   0  0  0  0  0  0
  -20.4724   25.1499  -10.3043 C   0  0  0  0  0  0
  -20.5512   26.2633   -9.5269 N   0  0  0  0  0  0
  -21.7392   26.6245   -9.0257 C   0  0  0  0  0  0
  -22.9073   26.0050   -9.1869 N   0  0  0  0  0  0
  -22.8073   24.9133   -9.9605 C   0  0  0  0  0  0
  -21.6557   24.4215  -10.5624 C   0  0  0  0  0  0
  -21.9622   23.2369  -11.3348 C   0  0  0  0  0  0
  -23.2970   22.8890  -11.2569 C   0  0  0  0  0  0
  -24.1894   23.9718  -10.2868 S   0  0  0  0  0  0
  -21.0597   22.4433  -12.1513 C   0  0  0  0  0  0
  -20.5049   21.2619  -11.6458 C   0  0  0  0  0  0
  -19.6247   20.5125  -12.4300 C   0  0  0  0  0  0
  -19.3017   20.9460  -13.7154 C   0  0  0  0  0  0
  -18.1102   19.9310  -14.7749 Br  0  0  0  0  0  0
  -19.8494   22.1222  -14.2255 C   0  0  0  0  0  0
  -20.7303   22.8721  -13.4430 C   0  0  0  0  0  0
  -17.7764   26.0606  -10.3195 H   0  0  0  0  0  0
  -17.2779   24.5410  -10.4904 H   0  0  0  0  0  0
  -19.1711   24.1766  -11.6233 H   0  0  0  0  0  0
  1  2  1  0  0  0
  1 19  1  0  0  0
  1 20  1  0  0  0
  2  3  1  0  0  0
  2 21  1  0  0  0
  3  4  2  0  0  0
  3  8  1  0  0  0
  4  5  1  0  0  0
  5  6  2  0  0  0
  6  7  1  0  0  0
  7  8  2  0  0  0
  7 11  1  0  0  0
  8  9  1  0  0  0
  9 10  2  0  0  0
  9 12  1  0  0  0
 10 11  1  0  0  0
 12 13  2  0  0  0
 12 18  1  0  0  0
 13 14  1  0  0  0
 14 15  2  0  0  0
 15 16  1  0  0  0
 15 17  1  0  0  0
 17 18  2  0  0  0
M  END
>  <CHROM.0>
-62.03257459,-72.86348067,72.30660229,64.47012190,-30.78359803,58.24806368
83.71572723,-163.79842105

>  <CHROM.1>
-82.98521931,28.91610976,98.77608310,-20.46579157,22.84077729,-11.99524216
-2.09348698,-0.15852313,-2.48235448

>  <Name>
F0745-0334

>  <RI>
1.24256e+07

>  <Rbt.Current_Directory>
/home/adria/Escritorio/rDock_CMTR_LC/2pxcA_model/inputs_sah

>  <Rbt.Executable>
rbdock ($Id: //depot/dev/client3/rdock/2013.1/src/exe/rbdock.cxx#4 $)

>  <Rbt.Library>
libRbt.so (2013.1, Build901 2013/11/27)

>  <Rbt.Parameter_File>
/home/adria/Escritorio/rDock_2013.1_src/data/scripts/dock.prm

>  <Rbt.Receptor>
sah_rdock.prm

>  <SCORE>
-26.5049

>  <SCORE.INTER>
-20.0598

>  <SCORE.INTER.CONST>
1

>  <SCORE.INTER.POLAR>
-2.36606

>  <SCORE.INTER.REPUL>
0.279096

>  <SCORE.INTER.ROT>
3

>  <SCORE.INTER.VDW>
-21.8107

>  <SCORE.INTER.norm>
-1.11443

>  <SCORE.INTRA>
1.35165

>  <SCORE.INTRA.DIHEDRAL>
2.94439

>  <SCORE.INTRA.DIHEDRAL.0>
12.8415

>  <SCORE.INTRA.POLAR>
0.0106328

>  <SCORE.INTRA.POLAR.0>
-0.0106328

>  <SCORE.INTRA.REPUL>
0

>  <SCORE.INTRA.REPUL.0>
0

>  <SCORE.INTRA.VDW>
-0.156698

>  <SCORE.INTRA.VDW.0>
-1.82529

>  <SCORE.INTRA.norm>
0.0750915

>  <SCORE.RESTR>
0

>  <SCORE.RESTR.CAVITY>
0

>  <SCORE.RESTR.norm>
0

>  <SCORE.SYSTEM>
-7.79672

>  <SCORE.SYSTEM.CONST>
0

>  <SCORE.SYSTEM.DIHEDRAL>
6.31749

>  <SCORE.SYSTEM.POLAR>
-4.05819

>  <SCORE.SYSTEM.REPUL>
0.0382908

>  <SCORE.SYSTEM.VDW>
2.65094

>  <SCORE.SYSTEM.norm>
-0.433151

>  <SCORE.heavy>
18

>  <SCORE.norm>
-1.47249

$$$$
F0745-0334
  rDOCK(R)          3D
libRbt.so/2013.1/901 2013/11/27
 21 23  0  0  0  0  0  0  0  0999 V2000
  -24.5863   23.6520  -14.3200 N   0  0  0  0  0  0
  -23.4380   23.5428  -13.5225 N   0  0  0  0  0  0
  -22.9277   24.6671  -12.8575 C   0  0  0  0  0  0
  -23.5413   25.8649  -13.0544 N   0  0  0  0  0  0
  -23.0583   26.9524  -12.4402 C   0  0  0  0  0  0
  -22.0023   27.0227  -11.6314 N   0  0  0  0  0  0
  -21.4159   25.8299  -11.4474 C   0  0  0  0  0  0
  -21.8059   24.6160  -11.9992 C   0  0  0  0  0  0
  -20.9328   23.5561  -11.5433 C   0  0  0  0  0  0
  -19.9346   24.0196  -10.7081 C   0  0  0  0  0  0
  -20.0409   25.7024  -10.4494 S   0  0  0  0  0  0
  -21.0164   22.1370  -11.8436 C   0  0  0  0  0  0
  -19.9268   21.4716  -12.4171 C   0  0  0  0  0  0
  -20.0197   20.1108  -12.7190 C   0  0  0  0  0  0
  -21.2004   19.4203  -12.4474 C   0  0  0  0  0  0
  -21.3247   17.5793  -12.8570 Br  0  0  0  0  0  0
  -22.2905   20.0764  -11.8774 C   0  0  0  0  0  0
  -22.1987   21.4367  -11.5742 C   0  0  0  0  0  0
  -24.5807   22.9045  -15.0199 H   0  0  0  0  0  0
  -24.4998   24.5053  -14.8868 H   0  0  0  0  0  0
  -22.9023   22.6798  -13.5136 H   0  0  0  0  0  0
  1  2  1  0  0  0
  1 19  1  0  0  0
  1 20  1  0  0  0
  2  3  1  0  0  0
  2 21  1  0  0  0
  3  4  2  0  0  0
  3  8  1  0  0  0
  4  5  1  0  0  0
  5  6  2  0  0  0
  6  7  1  0  0  0
  7  8  2  0  0  0
  7 11  1  0  0  0
  8  9  1  0  0  0
  9 10  2  0  0  0
  9 12  1  0  0  0
 10 11  1  0  0  0
 12 13  2  0  0  0
 12 18  1  0  0  0
 13 14  1  0  0  0
 14 15  2  0  0  0
 15 16  1  0  0  0
 15 17  1  0  0  0
 17 18  2  0  0  0
M  END
>  <CHROM.0>
-60.22123557,66.56580478,72.85526823,64.34532603,168.21005366,-176.16990606
-155.80859149,-53.41686036

>  <CHROM.1>
155.48130801,-2.75015443,123.79267187,-21.61174252,22.20097972,-12.27365639
1.66748765,-0.59954549,0.17305752

>  <Name>
F0745-0334

>  <RI>
1.24256e+07

>  <Rbt.Current_Directory>
/home/adria/Escritorio/rDock_CMTR_LC/2pxcA_model/inputs_sah

>  <Rbt.Executable>
rbdock ($Id: //depot/dev/client3/rdock/2013.1/src/exe/rbdock.cxx#4 $)

>  <Rbt.Library>
libRbt.so (2013.1, Build901 2013/11/27)

>  <Rbt.Parameter_File>
/home/adria/Escritorio/rDock_2013.1_src/data/scripts/dock.prm

>  <Rbt.Receptor>
sah_rdock.prm

>  <SCORE>
-21.2075

>  <SCORE.INTER>
-19.9676

>  <SCORE.INTER.CONST>
1

>  <SCORE.INTER.POLAR>
-1.98914

>  <SCORE.INTER.REPUL>
0.00210436

>  <SCORE.INTER.ROT>
3

>  <SCORE.INTER.VDW>
-21.615

>  <SCORE.INTER.norm>
-1.10931

>  <SCORE.INTRA>
-0.738695

>  <SCORE.INTRA.DIHEDRAL>
-2.83288

>  <SCORE.INTRA.DIHEDRAL.0>
12.8415

>  <SCORE.INTRA.POLAR>
0.0106328

>  <SCORE.INTRA.POLAR.0>
-0.0106328

>  <SCORE.INTRA.REPUL>
0

>  <SCORE.INTRA.REPUL.0>
0

>  <SCORE.INTRA.VDW>
0.641593

>  <SCORE.INTRA.VDW.0>
-1.82529

>  <SCORE.INTRA.norm>
-0.0410386

>  <SCORE.RESTR>
0

>  <SCORE.RESTR.CAVITY>
0

>  <SCORE.RESTR.norm>
0

>  <SCORE.SYSTEM>
-0.501184

>  <SCORE.SYSTEM.CONST>
0

>  <SCORE.SYSTEM.DIHEDRAL>
5.75091

>  <SCORE.SYSTEM.POLAR>
-3.38758

>  <SCORE.SYSTEM.REPUL>
0.00301913

>  <SCORE.SYSTEM.VDW>
8.12605

>  <SCORE.SYSTEM.norm>
-0.0278435

>  <SCORE.heavy>
18

>  <SCORE.norm>
-1.17819

$$$$
F0745-0334
  rDOCK(R)          3D
libRbt.so/2013.1/901 2013/11/27
 21 23  0  0  0  0  0  0  0  0999 V2000
  -24.6619   23.5661  -14.1767 N   0  0  0  0  0  0
  -23.4056   23.5180  -13.5557 N   0  0  0  0  0  0
  -22.8930   24.6496  -12.9050 C   0  0  0  0  0  0
  -23.5000   25.8472  -13.1225 N   0  0  0  0  0  0
  -23.0147   26.9414  -12.5222 C   0  0  0  0  0  0
  -21.9621   27.0187  -11.7096 N   0  0  0  0  0  0
  -21.3822   25.8262  -11.5053 C   0  0  0  0  0  0
  -21.7754   24.6060  -12.0409 C   0  0  0  0  0  0
  -20.9094   23.5489  -11.5652 C   0  0  0  0  0  0
  -19.9129   24.0201  -10.7324 C   0  0  0  0  0  0
  -20.0124   25.7070  -10.4992 S   0  0  0  0  0  0
  -20.9983   22.1259  -11.8450 C   0  0  0  0  0  0
  -19.8591   21.4098  -12.2300 C   0  0  0  0  0  0
  -19.9549   20.0454  -12.5139 C   0  0  0  0  0  0
  -21.1878   19.4018  -12.4126 C   0  0  0  0  0  0
  -21.3157   17.5558  -12.7975 Br  0  0  0  0  0  0
  -22.3273   20.1086  -12.0308 C   0  0  0  0  0  0
  -22.2329   21.4726  -11.7457 C   0  0  0  0  0  0
  -25.3580   23.1392  -13.5587 H   0  0  0  0  0  0
  -24.6423   22.9296  -14.9838 H   0  0  0  0  0  0
  -22.8091   22.7039  -13.6718 H   0  0  0  0  0  0
  1  2  1  0  0  0
  1 19  1  0  0  0
  1 20  1  0  0  0
  2  3  1  0  0  0
  2 21  1  0  0  0
  3  4  2  0  0  0
  3  8  1  0  0  0
  4  5  1  0  0  0
  5  6  2  0  0  0
  6  7  1  0  0  0
  7  8  2  0  0  0
  7 11  1  0  0  0
  8  9  1  0  0  0
  9 10  2  0  0  0
  9 12  1  0  0  0
 10 11  1  0  0  0
 12 13  2  0  0  0
 12 18  1  0  0  0
 13 14  1  0  0  0
 14 15  2  0  0  0
 15 16  1  0  0  0
 15 17  1  0  0  0
 17 18  2  0  0  0
M  END
>  <CHROM.0>
174.15507896,-75.49274327,-9.21677670,61.14168756,-30.52278084,-62.06644144
-156.29288438,-161.38623056

>  <CHROM.1>
-99.85085485,-13.26360603,132.53855978,-21.59674164,22.18031063,-12.26827485
1.66229057,-0.57409554,0.15597843

>  <Name>
F0745-0334

>  <RI>
1.24256e+07

>  <Rbt.Current_Directory>
/home/adria/Escritorio/rDock_CMTR_LC/2pxcA_model/inputs_sah

>  <Rbt.Executable>
rbdock ($Id: //depot/dev/client3/rdock/2013.1/src/exe/rbdock.cxx#4 $)

>  <Rbt.Library>
libRbt.so (2013.1, Build901 2013/11/27)

>  <Rbt.Parameter_File>
/home/adria/Escritorio/rDock_2013.1_src/data/scripts/dock.prm

>  <Rbt.Receptor>
sah_rdock.prm

>  <SCORE>
-27.1167

>  <SCORE.INTER>
-19.0857

>  <SCORE.INTER.CONST>
1

>  <SCORE.INTER.POLAR>
-2.11623

>  <SCORE.INTER.REPUL>
0

>  <SCORE.INTER.ROT>
3

>  <SCORE.INTER.VDW>
-20.2906

>  <SCORE.INTER.norm>
-1.06032

>  <SCORE.INTRA>
-0.901788

>  <SCORE.INTRA.DIHEDRAL>
-3.76586

>  <SCORE.INTRA.DIHEDRAL.0>
12.8415

>  <SCORE.INTRA.POLAR>
0.0106328

>  <SCORE.INTRA.POLAR.0>
-0.0106328

>  <SCORE.INTRA.REPUL>
0

>  <SCORE.INTRA.REPUL.0>
0

>  <SCORE.INTRA.VDW>
0.94499

>  <SCORE.INTRA.VDW.0>
-1.82529

>  <SCORE.INTRA.norm>
-0.0500993

>  <SCORE.RESTR>
0

>  <SCORE.RESTR.CAVITY>
0

>  <SCORE.RESTR.norm>
0

>  <SCORE.SYSTEM>
-7.12917

>  <SCORE.SYSTEM.CONST>
0

>  <SCORE.SYSTEM.DIHEDRAL>
9.90768

>  <SCORE.SYSTEM.POLAR>
-4.69688

>  <SCORE.SYSTEM.REPUL>
0.0426799

>  <SCORE.SYSTEM.VDW>
3.673

>  <SCORE.SYSTEM.norm>
-0.396065

>  <SCORE.heavy>
18

>  <SCORE.norm>
-1.50648

$$$$
F0745-0334
  rDOCK(R)          3D
libRbt.so/2013.1/901 2013/11/27
 21 23  0  0  0  0  0  0  0  0999 V2000
  -24.6214   23.5608  -14.2538 N   0  0  0  0  0  0
  -23.3744   23.5334  -13.6130 N   0  0  0  0  0  0
  -22.9005   24.6666  -12.9362 C   0  0  0  0  0  0
  -23.5245   25.8551  -13.1557 N   0  0  0  0  0  0
  -23.0759   26.9510  -12.5305 C   0  0  0  0  0  0
  -22.0462   27.0383  -11.6899 N   0  0  0  0  0  0
  -21.4492   25.8545  -11.4842 C   0  0  0  0  0  0
  -21.8050   24.6337  -12.0439 C   0  0  0  0  0  0
  -20.9315   23.5874  -11.5580 C   0  0  0  0  0  0
  -19.9660   24.0673  -10.6942 C   0  0  0  0  0  0
  -20.1037   25.7491  -10.4442 S   0  0  0  0  0  0
  -20.9860   22.1665  -11.8563 C   0  0  0  0  0  0
  -19.8257   21.4789  -12.2303 C   0  0  0  0  0  0
  -19.8882   20.1164  -12.5321 C   0  0  0  0  0  0
  -21.1089   19.4463  -12.4598 C   0  0  0  0  0  0
  -21.1918   17.6029  -12.8690 Br  0  0  0  0  0  0
  -22.2692   20.1246  -12.0891 C   0  0  0  0  0  0
  -22.2081   21.4866  -11.7861 C   0  0  0  0  0  0
  -25.3286   23.1647  -13.6279 H   0  0  0  0  0  0
  -24.5939   22.8896  -15.0320 H   0  0  0  0  0  0
  -22.7561   22.7363  -13.7322 H   0  0  0  0  0  0
  1  2  1  0  0  0
  1 19  1  0  0  0
  1 20  1  0  0  0
  2  3  1  0  0  0
  2 21  1  0  0  0
  3  4  2  0  0  0
  3  8  1  0  0  0
  4  5  1  0  0  0
  5  6  2  0  0  0
  6  7  1  0  0  0
  7  8  2  0  0  0
  7 11  1  0  0  0
  8  9  1  0  0  0
  9 10  2  0  0  0
  9 12  1  0  0  0
 10 11  1  0  0  0
 12 13  2  0  0  0
 12 18  1  0  0  0
 13 14  1  0  0  0
 14 15  2  0  0  0
 15 16  1  0  0  0
 15 17  1  0  0  0
 17 18  2  0  0  0
M  END
>  <CHROM.0>
171.42261312,-75.31223042,-10.60028738,65.48340554,-31.43292460,179.03957490
82.72684494,-158.28746466

>  <CHROM.1>
-96.02832796,-13.95545234,132.01867061,-21.57473683,22.21447916,-12.29352343
1.68975307,-0.59481624,0.18285146

>  <Name>
F0745-0334

>  <RI>
1.24256e+07

>  <Rbt.Current_Directory>
/home/adria/Escritorio/rDock_CMTR_LC/2pxcA_model/inputs_sah

>  <Rbt.Executable>
rbdock ($Id: //depot/dev/client3/rdock/2013.1/src/exe/rbdock.cxx#4 $)

>  <Rbt.Library>
libRbt.so (2013.1, Build901 2013/11/27)

>  <Rbt.Parameter_File>
/home/adria/Escritorio/rDock_2013.1_src/data/scripts/dock.prm

>  <Rbt.Receptor>
sah_rdock.prm

>  <SCORE>
-26.8036

>  <SCORE.INTER>
-19.2145

>  <SCORE.INTER.CONST>
1

>  <SCORE.INTER.POLAR>
-2.07833

>  <SCORE.INTER.REPUL>
0

>  <SCORE.INTER.ROT>
3

>  <SCORE.INTER.VDW>
-20.5482

>  <SCORE.INTER.norm>
-1.06747

>  <SCORE.INTRA>
-0.903928

>  <SCORE.INTRA.DIHEDRAL>
-3.56368

>  <SCORE.INTRA.DIHEDRAL.0>
12.8415

>  <SCORE.INTRA.POLAR>
0.0106328

>  <SCORE.INTRA.POLAR.0>
-0.0106328

>  <SCORE.INTRA.REPUL>
0

>  <SCORE.INTRA.REPUL.0>
0

>  <SCORE.INTRA.VDW>
0.841762

>  <SCORE.INTRA.VDW.0>
-1.82529

>  <SCORE.INTRA.norm>
-0.0502182

>  <SCORE.RESTR>
0

>  <SCORE.RESTR.CAVITY>
0

>  <SCORE.RESTR.norm>
0

>  <SCORE.SYSTEM>
-6.68519

>  <SCORE.SYSTEM.CONST>
0

>  <SCORE.SYSTEM.DIHEDRAL>
10.0511

>  <SCORE.SYSTEM.POLAR>
-4.5564

>  <SCORE.SYSTEM.REPUL>
0.0424006

>  <SCORE.SYSTEM.VDW>
3.56903

>  <SCORE.SYSTEM.norm>
-0.371399

>  <SCORE.heavy>
18

>  <SCORE.norm>
-1.48909

$$$$
F0745-0334
  rDOCK(R)          3D
libRbt.so/2013.1/901 2013/11/27
 21 23  0  0  0  0  0  0  0  0999 V2000
  -24.5601   23.6771  -14.3946 N   0  0  0  0  0  0
  -23.3867   23.5776  -13.6331 N   0  0  0  0  0  0
  -22.8961   24.6927  -12.9385 C   0  0  0  0  0  0
  -23.5518   25.8765  -13.0763 N   0  0  0  0  0  0
  -23.0887   26.9558  -12.4332 C   0  0  0  0  0  0
  -22.0161   27.0306  -11.6468 N   0  0  0  0  0  0
  -21.3882   25.8515  -11.5211 C   0  0  0  0  0  0
  -21.7529   24.6466  -12.1088 C   0  0  0  0  0  0
  -20.8360   23.5996  -11.7130 C   0  0  0  0  0  0
  -19.8330   24.0643  -10.8843 C   0  0  0  0  0  0
  -19.9860   25.7321  -10.5605 S   0  0  0  0  0  0
  -20.8820   22.1905  -12.0642 C   0  0  0  0  0  0
  -20.4511   21.7630  -13.3253 C   0  0  0  0  0  0
  -20.5138   20.4089  -13.6627 C   0  0  0  0  0  0
  -21.0071   19.4873  -12.7396 C   0  0  0  0  0  0
  -21.0918   17.6556  -13.1979 Br  0  0  0  0  0  0
  -21.4393   19.9056  -11.4819 C   0  0  0  0  0  0
  -21.3763   21.2590  -11.1428 C   0  0  0  0  0  0
  -25.3651   23.4613  -13.7996 H   0  0  0  0  0  0
  -24.5611   22.9098  -15.0788 H   0  0  0  0  0  0
  -22.8220   22.7341  -13.6726 H   0  0  0  0  0  0
  1  2  1  0  0  0
  1 19  1  0  0  0
  1 20  1  0  0  0
  2  3  1  0  0  0
  2 21  1  0  0  0
  3  4  2  0  0  0
  3  8  1  0  0  0
  4  5  1  0  0  0
  5  6  2  0  0  0
  6  7  1  0  0  0
  7  8  2  0  0  0
  7 11  1  0  0  0
  8  9  1  0  0  0
  9 10  2  0  0  0
  9 12  1  0  0  0
 10 11  1  0  0  0
 12 13  2  0  0  0
 12 18  1  0  0  0
 13 14  1  0  0  0
 14 15  2  0  0  0
 15 16  1  0  0  0
 15 17  1  0  0  0
 17 18  2  0  0  0
M  END
>  <CHROM.0>
-61.03359208,66.85775863,-47.70439507,65.79617954,-31.64047081,59.25877446
-156.65083433,-158.53960390

>  <CHROM.1>
-89.25679061,-3.03338613,78.06341752,-21.49890477,22.24405242,-12.46034650
1.69953672,-0.64083222,0.23024187

>  <Name>
F0745-0334

>  <RI>
1.24256e+07

>  <Rbt.Current_Directory>
/home/adria/Escritorio/rDock_CMTR_LC/2pxcA_model/inputs_sah

>  <Rbt.Executable>
rbdock ($Id: //depot/dev/client3/rdock/2013.1/src/exe/rbdock.cxx#4 $)

>  <Rbt.Library>
libRbt.so (2013.1, Build901 2013/11/27)

>  <Rbt.Parameter_File>
/home/adria/Escritorio/rDock_2013.1_src/data/scripts/dock.prm

>  <Rbt.Receptor>
sah_rdock.prm

>  <SCORE>
-26.892

>  <SCORE.INTER>
-19.9051

>  <SCORE.INTER.CONST>
1

>  <SCORE.INTER.POLAR>
-1.94121

>  <SCORE.INTER.REPUL>
0

>  <SCORE.INTER.ROT>
3

>  <SCORE.INTER.VDW>
-21.705

>  <SCORE.INTER.norm>
-1.10584

>  <SCORE.INTRA>
0.369839

>  <SCORE.INTRA.DIHEDRAL>
0.562564

>  <SCORE.INTRA.DIHEDRAL.0>
12.8415

>  <SCORE.INTRA.POLAR>
0.0106328

>  <SCORE.INTRA.POLAR.0>
-0.0106328

>  <SCORE.INTRA.REPUL>
0

>  <SCORE.INTRA.REPUL.0>
0

>  <SCORE.INTRA.VDW>
0.052406

>  <SCORE.INTRA.VDW.0>
-1.82529

>  <SCORE.INTRA.norm>
0.0205466

>  <SCORE.RESTR>
0

>  <SCORE.RESTR.CAVITY>
0

>  <SCORE.RESTR.norm>
0

>  <SCORE.SYSTEM>
-7.35668

>  <SCORE.SYSTEM.CONST>
0

>  <SCORE.SYSTEM.DIHEDRAL>
5.88067

>  <SCORE.SYSTEM.POLAR>
-3.73931

>  <SCORE.SYSTEM.VDW>
2.41664

>  <SCORE.SYSTEM.norm>
-0.408705

>  <SCORE.heavy>
18

>  <SCORE.norm>
-1.494

$$$$
F0745-0334
  rDOCK(R)          3D
libRbt.so/2013.1/901 2013/11/27
 21 23  0  0  0  0  0  0  0  0999 V2000
  -20.8243   17.9598  -11.0739 N   0  0  0  0  0  0
  -20.6063   19.0182  -11.9676 N   0  0  0  0  0  0
  -19.9309   18.7971  -13.1766 C   0  0  0  0  0  0
  -19.4738   17.5430  -13.4384 N   0  0  0  0  0  0
  -18.8127   17.3165  -14.5806 C   0  0  0  0  0  0
  -18.5214   18.1986  -15.5353 N   0  0  0  0  0  0
  -18.9857   19.4267  -15.2589 C   0  0  0  0  0  0
  -19.6984   19.8135  -14.1307 C   0  0  0  0  0  0
  -20.0396   21.2173  -14.2118 C   0  0  0  0  0  0
  -19.5550   21.8107  -15.3615 C   0  0  0  0  0  0
  -18.7138   20.7054  -16.3516 S   0  0  0  0  0  0
  -20.8146   22.0053  -13.2688 C   0  0  0  0  0  0
  -22.0611   21.5491  -12.8247 C   0  0  0  0  0  0
  -22.8087   22.3198  -11.9310 C   0  0  0  0  0  0
  -22.3089   23.5427  -11.4848 C   0  0  0  0  0  0
  -23.3220   24.5843  -10.2761 Br  0  0  0  0  0  0
  -21.0687   24.0043  -11.9235 C   0  0  0  0  0  0
  -20.3196   23.2346  -12.8163 C   0  0  0  0  0  0
  -21.7509   18.0640  -10.6506 H   0  0  0  0  0  0
  -20.1867   18.0805  -10.2765 H   0  0  0  0  0  0
  -20.8308   19.9709  -11.6957 H   0  0  0  0  0  0
  1  2  1  0  0  0
  1 19  1  0  0  0
  1 20  1  0  0  0
  2  3  1  0  0  0
  2 21  1  0  0  0
  3  4  2  0  0  0
  3  8  1  0  0  0
  4  5  1  0  0  0
  5  6  2  0  0  0
  6  7  1  0  0  0
  7  8  2  0  0  0
  7 11  1  0  0  0
  8  9  1  0  0  0
  9 10  2  0  0  0
  9 12  1  0  0  0
 10 11  1  0  0  0
 12 13  2  0  0  0
 12 18  1  0  0  0
 13 14  1  0  0  0
 14 15  2  0  0  0
 15 16  1  0  0  0
 15 17  1  0  0  0
 17 18  2  0  0  0
M  END
>  <CHROM.0>
-60.98787733,-74.97996134,-167.54188838,64.85455142,-30.83193969,-56.03361566
80.56519523,-163.04523503

>  <CHROM.1>
-142.02706690,-1.38325061,-50.33574779,-20.93568762,21.47561705,-12.82789174
0.43414368,-0.98484169,2.74748840

>  <Name>
F0745-0334

>  <RI>
1.24256e+07

>  <Rbt.Current_Directory>
/home/adria/Escritorio/rDock_CMTR_LC/2pxcA_model/inputs_sah

>  <Rbt.Executable>
rbdock ($Id: //depot/dev/client3/rdock/2013.1/src/exe/rbdock.cxx#4 $)

>  <Rbt.Library>
libRbt.so (2013.1, Build901 2013/11/27)

>  <Rbt.Parameter_File>
/home/adria/Escritorio/rDock_2013.1_src/data/scripts/dock.prm

>  <Rbt.Receptor>
sah_rdock.prm

>  <SCORE>
-23.1665

>  <SCORE.INTER>
-14.9109

>  <SCORE.INTER.CONST>
1

>  <SCORE.INTER.POLAR>
-1.72441

>  <SCORE.INTER.REPUL>
0.0129398

>  <SCORE.INTER.ROT>
3

>  <SCORE.INTER.VDW>
-17.5126

>  <SCORE.INTER.norm>
-0.828385

>  <SCORE.INTRA>
-0.860463

>  <SCORE.INTRA.DIHEDRAL>
-4.36834

>  <SCORE.INTRA.DIHEDRAL.0>
12.8415

>  <SCORE.INTRA.POLAR>
0.0106328

>  <SCORE.INTRA.POLAR.0>
-0.0106328

>  <SCORE.INTRA.REPUL>
0

>  <SCORE.INTRA.REPUL.0>
0

>  <SCORE.INTRA.VDW>
1.28756

>  <SCORE.INTRA.VDW.0>
-1.82529

>  <SCORE.INTRA.norm>
-0.0478035

>  <SCORE.RESTR>
0

>  <SCORE.RESTR.CAVITY>
0

>  <SCORE.RESTR.norm>
0

>  <SCORE.SYSTEM>
-7.3951

>  <SCORE.SYSTEM.CONST>
0

>  <SCORE.SYSTEM.DIHEDRAL>
6.3787

>  <SCORE.SYSTEM.POLAR>
-3.91846

>  <SCORE.SYSTEM.REPUL>
0.041878

>  <SCORE.SYSTEM.VDW>
2.52892

>  <SCORE.SYSTEM.norm>
-0.410839

>  <SCORE.heavy>
18

>  <SCORE.norm>
-1.28703

$$$$
F0745-0334
  rDOCK(R)          3D
libRbt.so/2013.1/901 2013/11/27
 21 23  0  0  0  0  0  0  0  0999 V2000
  -24.5613   23.6650  -14.4225 N   0  0  0  0  0  0
  -23.4158   23.5599  -13.6206 N   0  0  0  0  0  0
  -22.9271   24.6801  -12.9328 C   0  0  0  0  0  0
  -23.5374   25.8783  -13.1383 N   0  0  0  0  0  0
  -23.0746   26.9620  -12.5024 C   0  0  0  0  0  0
  -22.0424   27.0282  -11.6630 N   0  0  0  0  0  0
  -21.4590   25.8352  -11.4712 C   0  0  0  0  0  0
  -21.8304   24.6247  -12.0430 C   0  0  0  0  0  0
  -20.9685   23.5631  -11.5701 C   0  0  0  0  0  0
  -19.9957   24.0222  -10.7032 C   0  0  0  0  0  0
  -20.1129   25.7027  -10.4351 S   0  0  0  0  0  0
  -21.0404   22.1461  -11.8833 C   0  0  0  0  0  0
  -21.8072   21.2858  -11.0891 C   0  0  0  0  0  0
  -21.8585   19.9217  -11.3858 C   0  0  0  0  0  0
  -21.1436   19.4222  -12.4740 C   0  0  0  0  0  0
  -21.2137   17.5762  -12.8737 Br  0  0  0  0  0  0
  -20.3767   20.2728  -13.2691 C   0  0  0  0  0  0
  -20.3252   21.6370  -12.9742 C   0  0  0  0  0  0
  -25.3868   23.4427  -13.8587 H   0  0  0  0  0  0
  -24.5367   22.9041  -15.1134 H   0  0  0  0  0  0
  -22.8663   22.7055  -13.6240 H   0  0  0  0  0  0
  1  2  1  0  0  0
  1 19  1  0  0  0
  1 20  1  0  0  0
  2  3  1  0  0  0
  2 21  1  0  0  0
  3  4  2  0  0  0
  3  8  1  0  0  0
  4  5  1  0  0  0
  5  6  2  0  0  0
  6  7  1  0  0  0
  7  8  2  0  0  0
  7 11  1  0  0  0
  8  9  1  0  0  0
  9 10  2  0  0  0
  9 12  1  0  0  0
 10 11  1  0  0  0
 12 13  2  0  0  0
 12 18  1  0  0  0
 13 14  1  0  0  0
 14 15  2  0  0  0
 15 16  1  0  0  0
 15 17  1  0  0  0
 17 18  2  0  0  0
M  END
>  <CHROM.0>
168.82941099,-71.84862707,-128.91132009,65.75586168,-30.44126340,-59.34894676
-157.02582327,-162.34238064

>  <CHROM.1>
-91.32984112,-4.40999124,-89.97916021,-21.59636241,22.20218145,-12.30402018
1.69351197,-0.66961353,0.19127496

>  <Name>
F0745-0334

>  <RI>
1.24256e+07

>  <Rbt.Current_Directory>
/home/adria/Escritorio/rDock_CMTR_LC/2pxcA_model/inputs_sah

>  <Rbt.Executable>
rbdock ($Id: //depot/dev/client3/rdock/2013.1/src/exe/rbdock.cxx#4 $)

>  <Rbt.Library>
libRbt.so (2013.1, Build901 2013/11/27)

>  <Rbt.Parameter_File>
/home/adria/Escritorio/rDock_2013.1_src/data/scripts/dock.prm

>  <Rbt.Receptor>
sah_rdock.prm

>  <SCORE>
-25.4602

>  <SCORE.INTER>
-19.3686

>  <SCORE.INTER.CONST>
1

>  <SCORE.INTER.POLAR>
-2.05464

>  <SCORE.INTER.REPUL>
0

>  <SCORE.INTER.ROT>
3

>  <SCORE.INTER.VDW>
-20.7828

>  <SCORE.INTER.norm>
-1.07603

>  <SCORE.INTRA>
0.532846

>  <SCORE.INTRA.DIHEDRAL>
1.21002

>  <SCORE.INTRA.DIHEDRAL.0>
12.8415

>  <SCORE.INTRA.POLAR>
0.0106328

>  <SCORE.INTRA.POLAR.0>
-0.0106328

>  <SCORE.INTRA.REPUL>
0

>  <SCORE.INTRA.REPUL.0>
0

>  <SCORE.INTRA.VDW>
-0.108315

>  <SCORE.INTRA.VDW.0>
-1.82529

>  <SCORE.INTRA.norm>
0.0296025

>  <SCORE.RESTR>
0

>  <SCORE.RESTR.CAVITY>
0

>  <SCORE.RESTR.norm>
0

>  <SCORE.SYSTEM>
-6.62447

>  <SCORE.SYSTEM.CONST>
0

>  <SCORE.SYSTEM.DIHEDRAL>
9.95141

>  <SCORE.SYSTEM.POLAR>
-4.53644

>  <SCORE.SYSTEM.REPUL>
0.0364149

>  <SCORE.SYSTEM.VDW>
3.64164

>  <SCORE.SYSTEM.norm>
-0.368026

>  <SCORE.heavy>
18

>  <SCORE.norm>
-1.41446

$$$$
