F1092-2492
  rDOCK(R)          3D
libRbt.so/2013.1/901 2013/11/27
 33 36  0  0  0  0  0  0  0  0999 V2000
  -24.2631   19.7499  -17.7501 C   0  0  0  0  0  0
  -23.6548   19.0589  -16.5730 C   0  0  0  0  0  0
  -24.1751   19.2890  -15.2962 C   0  0  0  0  0  0
  -23.6927   18.5615  -14.2170 C   0  0  0  0  0  0
  -22.6911   17.5946  -14.4071 C   0  0  0  0  0  0
  -22.0766   16.9196  -13.2151 C   0  0  0  0  0  0
  -20.7618   17.2370  -12.8137 O   0  0  0  0  0  0
  -20.5458   18.5913  -12.6266 C   0  0  0  0  0  0
  -19.6180   19.4684  -13.1973 C   0  0  0  0  0  0
  -19.5581   20.7266  -12.4180 C   0  0  0  0  0  0
  -20.4265   21.2537  -11.4876 C   0  0  0  0  0  0
  -21.3946   20.4136  -11.0798 C   0  0  0  0  0  0
  -21.4136   19.1016  -11.5993 C   0  0  0  0  0  0
  -18.7972   19.3095  -14.6716 C   0  0  0  0  0  0
  -19.5851   18.7717  -16.2047 N   0  0  0  0  0  0
  -18.3508   18.8826  -17.6170 N   0  0  0  0  0  0
  -18.5593   18.5550  -18.5656 H   0  0  0  0  0  0
  -16.6944   19.3687  -17.0770 C   0  0  0  0  0  0
  -16.8374   19.7690  -15.4055 C   0  0  0  0  0  0
  -15.5009   18.6606  -17.5072 C   0  0  0  0  0  0
  -14.3857   19.1264  -17.3052 O   0  0  0  0  0  0
  -15.6099   17.4366  -18.2007 N   0  0  0  0  0  0
  -16.5041   16.6698  -18.9400 N   0  0  0  0  0  0
  -16.6493   15.3941  -19.1394 C   0  0  0  0  0  0
  -15.8107   14.2969  -18.7206 C   0  0  0  0  0  0
  -15.2967   14.6088  -17.2165 C   0  0  0  0  0  0
  -15.3774   13.5703  -15.8100 N   0  0  0  0  0  0
  -15.8531   11.9826  -15.8251 C   0  0  0  0  0  0
  -16.5357   11.4400  -17.2551 C   0  0  0  0  0  0
  -16.4122   12.7810  -18.9123 C   0  0  0  0  0  0
  -22.1029   17.4433  -15.6615 C   0  0  0  0  0  0
  -22.5868   18.1688  -16.7420 C   0  0  0  0  0  0
  -14.6958   17.0019  -18.2471 H   0  0  0  0  0  0
  1  2  1  0  0  0
  2  3  2  0  0  0
  2 32  1  0  0  0
  3  4  1  0  0  0
  4  5  2  0  0  0
  5  6  1  0  0  0
  5 31  1  0  0  0
  6  7  1  0  0  0
  7  8  1  0  0  0
  8  9  2  0  0  0
  8 13  1  0  0  0
  9 10  1  0  0  0
  9 14  1  0  0  0
 10 11  2  0  0  0
 11 12  1  0  0  0
 12 13  2  0  0  0
 14 15  2  0  0  0
 14 19  1  0  0  0
 15 16  1  0  0  0
 16 17  1  0  0  0
 16 18  1  0  0  0
 18 19  2  0  0  0
 18 20  1  0  0  0
 20 21  2  0  0  0
 20 22  1  0  0  0
 22 23  1  0  0  0
 22 33  1  0  0  0
 23 24  2  0  0  0
 24 25  1  0  0  0
 25 26  2  0  0  0
 25 30  1  0  0  0
 26 27  1  0  0  0
 27 28  2  0  0  0
 28 29  1  0  0  0
 29 30  2  0  0  0
 31 32  2  0  0  0
M  END
>  <CHROM.0>
-59.87181715,-73.63032578,-167.26936336,60.42921935,168.14389340,68.28219339
-156.49116998,-164.17302452

>  <CHROM.1>
-107.14131419,53.14362048,-123.23416896,43.75237078,168.37517466,-151.30167677
39.87794651,-19.10652873,17.59962918,-15.67260588,2.40883833,0.18461684,0.53666309

>  <Name>
F1092-2492

>  <RI>
1.29744e+07

>  <Rbt.Current_Directory>
/home/adria/Escritorio/rDock_CMTR_LC/2pxcA_model/inputs_sah

>  <Rbt.Executable>
rbdock ($Id: //depot/dev/client3/rdock/2013.1/src/exe/rbdock.cxx#4 $)

>  <Rbt.Library>
libRbt.so (2013.1, Build901 2013/11/27)

>  <Rbt.Parameter_File>
/home/adria/Escritorio/rDock_2013.1_src/data/scripts/dock.prm

>  <Rbt.Receptor>
sah_rdock.prm

>  <SCORE>
-269.059

>  <SCORE.INTER>
-16.0366

>  <SCORE.INTER.CONST>
1

>  <SCORE.INTER.POLAR>
-1.38204

>  <SCORE.INTER.REPUL>
0

>  <SCORE.INTER.ROT>
7

>  <SCORE.INTER.VDW>
-23.7377

>  <SCORE.INTER.norm>
-0.51731

>  <SCORE.INTRA>
-250.36

>  <SCORE.INTRA.DIHEDRAL>
4.54057

>  <SCORE.INTRA.DIHEDRAL.0>
15.1799

>  <SCORE.INTRA.POLAR>
0

>  <SCORE.INTRA.POLAR.0>
0

>  <SCORE.INTRA.REPUL>
0

>  <SCORE.INTRA.REPUL.0>
0

>  <SCORE.INTRA.VDW>
-252.631

>  <SCORE.INTRA.VDW.0>
251.097

>  <SCORE.INTRA.norm>
-8.07614

>  <SCORE.RESTR>
0

>  <SCORE.RESTR.CAVITY>
0

>  <SCORE.RESTR.norm>
0

>  <SCORE.SYSTEM>
-2.66221

>  <SCORE.SYSTEM.CONST>
0

>  <SCORE.SYSTEM.DIHEDRAL>
3.66059

>  <SCORE.SYSTEM.POLAR>
-3.96952

>  <SCORE.SYSTEM.REPUL>
0.0396417

>  <SCORE.SYSTEM.VDW>
8.80565

>  <SCORE.SYSTEM.norm>
-0.0858779

>  <SCORE.heavy>
31

>  <SCORE.norm>
-8.67932

$$$$
F1092-2492
  rDOCK(R)          3D
libRbt.so/2013.1/901 2013/11/27
 33 36  0  0  0  0  0  0  0  0999 V2000
  -26.0431   23.0471   -8.2443 C   0  0  0  0  0  0
  -25.3770   23.2838   -9.5610 C   0  0  0  0  0  0
  -24.2964   22.4816   -9.9388 C   0  0  0  0  0  0
  -23.7506   22.6184  -11.2077 C   0  0  0  0  0  0
  -24.2850   23.5534  -12.1101 C   0  0  0  0  0  0
  -23.5968   23.7937  -13.4228 C   0  0  0  0  0  0
  -22.6281   24.8120  -13.5453 O   0  0  0  0  0  0
  -21.6794   24.8056  -12.5375 C   0  0  0  0  0  0
  -20.8008   23.8097  -12.0992 C   0  0  0  0  0  0
  -20.2410   24.1686  -10.7757 C   0  0  0  0  0  0
  -20.2032   25.3734  -10.1088 C   0  0  0  0  0  0
  -20.9526   26.3460  -10.6579 C   0  0  0  0  0  0
  -21.7104   26.0461  -11.8100 C   0  0  0  0  0  0
  -20.2245   22.4692  -12.9614 C   0  0  0  0  0  0
  -20.3313   22.3106  -14.7569 N   0  0  0  0  0  0
  -19.4405   20.7491  -15.3031 N   0  0  0  0  0  0
  -19.4392   20.4194  -16.2736 H   0  0  0  0  0  0
  -18.8245   19.7609  -13.9190 C   0  0  0  0  0  0
  -19.1018   20.7033  -12.5013 C   0  0  0  0  0  0
  -19.0401   18.3266  -13.8353 C   0  0  0  0  0  0
  -19.4197   17.8071  -12.7924 O   0  0  0  0  0  0
  -18.7791   17.5007  -14.9492 N   0  0  0  0  0  0
  -18.0849   17.4698  -16.1539 N   0  0  0  0  0  0
  -17.3373   16.5850  -16.7425 C   0  0  0  0  0  0
  -16.8659   15.3104  -16.2571 C   0  0  0  0  0  0
  -18.1245   14.5319  -15.5984 C   0  0  0  0  0  0
  -18.6759   12.9024  -15.9207 N   0  0  0  0  0  0
  -17.8740   11.7938  -16.8563 C   0  0  0  0  0  0
  -16.5817   12.3863  -17.7417 C   0  0  0  0  0  0
  -15.9920   14.3904  -17.2994 C   0  0  0  0  0  0
  -25.2921   24.4218  -11.6934 C   0  0  0  0  0  0
  -25.8403   24.2839  -10.4250 C   0  0  0  0  0  0
  -19.1628   16.5796  -14.7732 H   0  0  0  0  0  0
  1  2  1  0  0  0
  2  3  2  0  0  0
  2 32  1  0  0  0
  3  4  1  0  0  0
  4  5  2  0  0  0
  5  6  1  0  0  0
  5 31  1  0  0  0
  6  7  1  0  0  0
  7  8  1  0  0  0
  8  9  2  0  0  0
  8 13  1  0  0  0
  9 10  1  0  0  0
  9 14  1  0  0  0
 10 11  2  0  0  0
 11 12  1  0  0  0
 12 13  2  0  0  0
 14 15  2  0  0  0
 14 19  1  0  0  0
 15 16  1  0  0  0
 16 17  1  0  0  0
 16 18  1  0  0  0
 18 19  2  0  0  0
 18 20  1  0  0  0
 20 21  2  0  0  0
 20 22  1  0  0  0
 22 23  1  0  0  0
 22 33  1  0  0  0
 23 24  2  0  0  0
 24 25  1  0  0  0
 25 26  2  0  0  0
 25 30  1  0  0  0
 26 27  1  0  0  0
 27 28  2  0  0  0
 28 29  1  0  0  0
 29 30  2  0  0  0
 31 32  2  0  0  0
M  END
>  <CHROM.0>
-61.24670648,-168.62231205,-7.71067219,64.13979250,167.12431610,-58.58973543
-157.91679236,-160.52453363

>  <CHROM.1>
-91.91967930,48.01965395,56.60492040,15.95806949,-133.92717689,135.36869079
47.03861342,-20.69811002,20.55089661,-13.29941831,2.14062092,0.52724897,0.18944491

>  <Name>
F1092-2492

>  <RI>
1.29744e+07

>  <Rbt.Current_Directory>
/home/adria/Escritorio/rDock_CMTR_LC/2pxcA_model/inputs_sah

>  <Rbt.Executable>
rbdock ($Id: //depot/dev/client3/rdock/2013.1/src/exe/rbdock.cxx#4 $)

>  <Rbt.Library>
libRbt.so (2013.1, Build901 2013/11/27)

>  <Rbt.Parameter_File>
/home/adria/Escritorio/rDock_2013.1_src/data/scripts/dock.prm

>  <Rbt.Receptor>
sah_rdock.prm

>  <SCORE>
-275.29

>  <SCORE.INTER>
-20.18

>  <SCORE.INTER.CONST>
1

>  <SCORE.INTER.POLAR>
-1.59152

>  <SCORE.INTER.REPUL>
0.019572

>  <SCORE.INTER.ROT>
7

>  <SCORE.INTER.VDW>
-27.2667

>  <SCORE.INTER.norm>
-0.650969

>  <SCORE.INTRA>
-253.782

>  <SCORE.INTRA.DIHEDRAL>
0.354172

>  <SCORE.INTRA.DIHEDRAL.0>
15.1799

>  <SCORE.INTRA.POLAR>
0

>  <SCORE.INTRA.POLAR.0>
0

>  <SCORE.INTRA.REPUL>
0

>  <SCORE.INTRA.REPUL.0>
0

>  <SCORE.INTRA.VDW>
-253.96

>  <SCORE.INTRA.VDW.0>
251.097

>  <SCORE.INTRA.norm>
-8.18653

>  <SCORE.RESTR>
0

>  <SCORE.RESTR.CAVITY>
0

>  <SCORE.RESTR.norm>
0

>  <SCORE.SYSTEM>
-1.32782

>  <SCORE.SYSTEM.CONST>
0

>  <SCORE.SYSTEM.DIHEDRAL>
6.56876

>  <SCORE.SYSTEM.POLAR>
-4.25262

>  <SCORE.SYSTEM.VDW>
9.84671

>  <SCORE.SYSTEM.norm>
-0.042833

>  <SCORE.heavy>
31

>  <SCORE.norm>
-8.88033

$$$$
F1092-2492
  rDOCK(R)          3D
libRbt.so/2013.1/901 2013/11/27
 33 36  0  0  0  0  0  0  0  0999 V2000
  -23.3571   19.1023  -13.8638 C   0  0  0  0  0  0
  -22.1340   18.5396  -14.5123 C   0  0  0  0  0  0
  -21.7453   19.0085  -15.7705 C   0  0  0  0  0  0
  -20.5481   18.5765  -16.3242 C   0  0  0  0  0  0
  -19.7279   17.6776  -15.6218 C   0  0  0  0  0  0
  -18.5109   17.1067  -16.2908 C   0  0  0  0  0  0
  -17.2593   17.1345  -15.6403 O   0  0  0  0  0  0
  -16.5263   18.2824  -15.8867 C   0  0  0  0  0  0
  -16.8817   19.6345  -15.8462 C   0  0  0  0  0  0
  -15.8526   20.4539  -16.5268 C   0  0  0  0  0  0
  -14.5548   20.1589  -16.8828 C   0  0  0  0  0  0
  -14.2173   18.8625  -16.7617 C   0  0  0  0  0  0
  -15.1988   17.9465  -16.3269 C   0  0  0  0  0  0
  -18.1535   20.3570  -14.9900 C   0  0  0  0  0  0
  -18.9696   21.8829  -15.5055 N   0  0  0  0  0  0
  -20.4141   22.2406  -14.3583 N   0  0  0  0  0  0
  -20.9734   23.0974  -14.4179 H   0  0  0  0  0  0
  -20.5432   21.0647  -12.9899 C   0  0  0  0  0  0
  -19.3667   19.8424  -13.3006 C   0  0  0  0  0  0
  -20.7307   21.4946  -11.6149 C   0  0  0  0  0  0
  -20.9190   20.6784  -10.7206 O   0  0  0  0  0  0
  -20.7353   22.8683  -11.2923 N   0  0  0  0  0  0
  -20.8984   24.1281  -11.8583 N   0  0  0  0  0  0
  -21.8555   24.7016  -12.5241 C   0  0  0  0  0  0
  -23.0926   24.1463  -13.0180 C   0  0  0  0  0  0
  -23.2579   22.6621  -12.3908 C   0  0  0  0  0  0
  -24.6374   21.9934  -11.5464 N   0  0  0  0  0  0
  -26.1117   22.7354  -11.3945 C   0  0  0  0  0  0
  -26.1736   24.3386  -11.8756 C   0  0  0  0  0  0
  -24.4383   25.0768  -12.8773 C   0  0  0  0  0  0
  -20.1688   17.1330  -14.4172 C   0  0  0  0  0  0
  -21.3652   17.5667  -13.8614 C   0  0  0  0  0  0
  -20.6842   22.9702  -10.2854 H   0  0  0  0  0  0
  1  2  1  0  0  0
  2  3  2  0  0  0
  2 32  1  0  0  0
  3  4  1  0  0  0
  4  5  2  0  0  0
  5  6  1  0  0  0
  5 31  1  0  0  0
  6  7  1  0  0  0
  7  8  1  0  0  0
  8  9  2  0  0  0
  8 13  1  0  0  0
  9 10  1  0  0  0
  9 14  1  0  0  0
 10 11  2  0  0  0
 11 12  1  0  0  0
 12 13  2  0  0  0
 14 15  2  0  0  0
 14 19  1  0  0  0
 15 16  1  0  0  0
 16 17  1  0  0  0
 16 18  1  0  0  0
 18 19  2  0  0  0
 18 20  1  0  0  0
 20 21  2  0  0  0
 20 22  1  0  0  0
 22 23  1  0  0  0
 22 33  1  0  0  0
 23 24  2  0  0  0
 24 25  1  0  0  0
 25 26  2  0  0  0
 25 30  1  0  0  0
 26 27  1  0  0  0
 27 28  2  0  0  0
 28 29  1  0  0  0
 29 30  2  0  0  0
 31 32  2  0  0  0
M  END
>  <CHROM.0>
-58.16125868,-75.18463482,91.92086106,60.04874707,168.59298786,-58.21064011
85.39196686,-44.38589661

>  <CHROM.1>
130.38169214,-89.17954109,47.79262548,-152.58865351,174.28086521,58.10351379
9.43705789,-20.28671241,20.56648456,-14.05414772,2.49088854,0.32540627,0.32465609

>  <Name>
F1092-2492

>  <RI>
1.29744e+07

>  <Rbt.Current_Directory>
/home/adria/Escritorio/rDock_CMTR_LC/2pxcA_model/inputs_sah

>  <Rbt.Executable>
rbdock ($Id: //depot/dev/client3/rdock/2013.1/src/exe/rbdock.cxx#4 $)

>  <Rbt.Library>
libRbt.so (2013.1, Build901 2013/11/27)

>  <Rbt.Parameter_File>
/home/adria/Escritorio/rDock_2013.1_src/data/scripts/dock.prm

>  <Rbt.Receptor>
sah_rdock.prm

>  <SCORE>
-267.566

>  <SCORE.INTER>
-15.0662

>  <SCORE.INTER.CONST>
1

>  <SCORE.INTER.POLAR>
-0.427558

>  <SCORE.INTER.REPUL>
0

>  <SCORE.INTER.ROT>
7

>  <SCORE.INTER.VDW>
-26.0125

>  <SCORE.INTER.norm>
-0.486005

>  <SCORE.INTRA>
-252.479

>  <SCORE.INTRA.DIHEDRAL>
6.08711

>  <SCORE.INTRA.DIHEDRAL.0>
15.1799

>  <SCORE.INTRA.POLAR>
0

>  <SCORE.INTRA.POLAR.0>
0

>  <SCORE.INTRA.REPUL>
0

>  <SCORE.INTRA.REPUL.0>
0

>  <SCORE.INTRA.VDW>
-255.522

>  <SCORE.INTRA.VDW.0>
251.097

>  <SCORE.INTRA.norm>
-8.14448

>  <SCORE.RESTR>
0

>  <SCORE.RESTR.CAVITY>
0

>  <SCORE.RESTR.norm>
0

>  <SCORE.SYSTEM>
-0.021091

>  <SCORE.SYSTEM.CONST>
0

>  <SCORE.SYSTEM.DIHEDRAL>
7.42417

>  <SCORE.SYSTEM.POLAR>
-3.77161

>  <SCORE.SYSTEM.REPUL>
0.0682735

>  <SCORE.SYSTEM.VDW>
8.74893

>  <SCORE.SYSTEM.norm>
-0.000680354

>  <SCORE.heavy>
31

>  <SCORE.norm>
-8.63117

$$$$
F1092-2492
  rDOCK(R)          3D
libRbt.so/2013.1/901 2013/11/27
 33 36  0  0  0  0  0  0  0  0999 V2000
  -20.6770   23.3799  -12.8563 C   0  0  0  0  0  0
  -22.1255   23.0283  -12.7493 C   0  0  0  0  0  0
  -23.0841   24.0451  -12.7828 C   0  0  0  0  0  0
  -24.4326   23.7168  -12.8031 C   0  0  0  0  0  0
  -24.8325   22.3698  -12.7962 C   0  0  0  0  0  0
  -26.2896   22.0298  -12.6715 C   0  0  0  0  0  0
  -27.0335   22.4726  -11.5575 O   0  0  0  0  0  0
  -26.3943   22.2782  -10.3453 C   0  0  0  0  0  0
  -25.8073   21.1417   -9.7799 C   0  0  0  0  0  0
  -25.5727   21.3540   -8.3329 C   0  0  0  0  0  0
  -25.5476   22.5094   -7.5831 C   0  0  0  0  0  0
  -25.9852   23.6078   -8.2244 C   0  0  0  0  0  0
  -26.4459   23.4767   -9.5518 C   0  0  0  0  0  0
  -25.2131   19.7664  -10.5725 C   0  0  0  0  0  0
  -23.9951   18.6434   -9.8546 N   0  0  0  0  0  0
  -23.7359   17.1803  -11.0046 N   0  0  0  0  0  0
  -23.0316   16.4556  -10.8334 H   0  0  0  0  0  0
  -24.6544   17.3242  -12.5562 C   0  0  0  0  0  0
  -25.6534   18.7203  -12.3898 C   0  0  0  0  0  0
  -24.0353   17.0808  -13.8478 C   0  0  0  0  0  0
  -24.6844   16.6219  -14.7803 O   0  0  0  0  0  0
  -22.6607   17.3363  -14.0384 N   0  0  0  0  0  0
  -21.4703   17.5132  -13.3415 N   0  0  0  0  0  0
  -20.2699   17.8754  -13.6825 C   0  0  0  0  0  0
  -19.7215   18.1207  -14.9945 C   0  0  0  0  0  0
  -18.1277   18.3597  -14.8316 C   0  0  0  0  0  0
  -16.8238   17.5778  -15.6986 N   0  0  0  0  0  0
  -17.0170   16.5560  -16.9892 C   0  0  0  0  0  0
  -18.5872   16.0620  -17.2989 C   0  0  0  0  0  0
  -20.1119   17.0529  -16.1794 C   0  0  0  0  0  0
  -23.8779   21.3640  -12.6569 C   0  0  0  0  0  0
  -22.5286   21.6916  -12.6392 C   0  0  0  0  0  0
  -22.4525   17.2950  -15.0292 H   0  0  0  0  0  0
  1  2  1  0  0  0
  2  3  2  0  0  0
  2 32  1  0  0  0
  3  4  1  0  0  0
  4  5  2  0  0  0
  5  6  1  0  0  0
  5 31  1  0  0  0
  6  7  1  0  0  0
  7  8  1  0  0  0
  8  9  2  0  0  0
  8 13  1  0  0  0
  9 10  1  0  0  0
  9 14  1  0  0  0
 10 11  2  0  0  0
 11 12  1  0  0  0
 12 13  2  0  0  0
 14 15  2  0  0  0
 14 19  1  0  0  0
 15 16  1  0  0  0
 16 17  1  0  0  0
 16 18  1  0  0  0
 18 19  2  0  0  0
 18 20  1  0  0  0
 20 21  2  0  0  0
 20 22  1  0  0  0
 22 23  1  0  0  0
 22 33  1  0  0  0
 23 24  2  0  0  0
 24 25  1  0  0  0
 25 26  2  0  0  0
 25 30  1  0  0  0
 26 27  1  0  0  0
 27 28  2  0  0  0
 28 29  1  0  0  0
 29 30  2  0  0  0
 31 32  2  0  0  0
M  END
>  <CHROM.0>
-60.77801080,68.32672276,72.51023029,-60.23032372,-31.25926468,64.35706720
-158.68227078,-165.91722692

>  <CHROM.1>
-58.05589260,-45.99023316,-51.73239718,157.98450863,148.38093221,-172.13589142
-172.86452189,-23.13925079,19.97686578,-12.58302720,-2.45406357,-0.56336852
-2.91127436

>  <Name>
F1092-2492

>  <RI>
1.29744e+07

>  <Rbt.Current_Directory>
/home/adria/Escritorio/rDock_CMTR_LC/2pxcA_model/inputs_sah

>  <Rbt.Executable>
rbdock ($Id: //depot/dev/client3/rdock/2013.1/src/exe/rbdock.cxx#4 $)

>  <Rbt.Library>
libRbt.so (2013.1, Build901 2013/11/27)

>  <Rbt.Parameter_File>
/home/adria/Escritorio/rDock_2013.1_src/data/scripts/dock.prm

>  <Rbt.Receptor>
sah_rdock.prm

>  <SCORE>
-269.989

>  <SCORE.INTER>
-8.56943

>  <SCORE.INTER.CONST>
1

>  <SCORE.INTER.POLAR>
-0.963392

>  <SCORE.INTER.REPUL>
0

>  <SCORE.INTER.ROT>
7

>  <SCORE.INTER.VDW>
-17.6939

>  <SCORE.INTER.norm>
-0.276433

>  <SCORE.INTRA>
-254.099

>  <SCORE.INTRA.DIHEDRAL>
1.26

>  <SCORE.INTRA.DIHEDRAL.0>
15.1799

>  <SCORE.INTRA.POLAR>
0

>  <SCORE.INTRA.POLAR.0>
0

>  <SCORE.INTRA.REPUL>
0

>  <SCORE.INTRA.REPUL.0>
0

>  <SCORE.INTRA.VDW>
-254.729

>  <SCORE.INTRA.VDW.0>
251.097

>  <SCORE.INTRA.norm>
-8.19674

>  <SCORE.RESTR>
0

>  <SCORE.RESTR.CAVITY>
0

>  <SCORE.RESTR.norm>
0

>  <SCORE.SYSTEM>
-7.32107

>  <SCORE.SYSTEM.CONST>
0

>  <SCORE.SYSTEM.DIHEDRAL>
5.41597

>  <SCORE.SYSTEM.POLAR>
-3.73302

>  <SCORE.SYSTEM.VDW>
2.6632

>  <SCORE.SYSTEM.norm>
-0.236164

>  <SCORE.heavy>
31

>  <SCORE.norm>
-8.70934

$$$$
F1092-2492
  rDOCK(R)          3D
libRbt.so/2013.1/901 2013/11/27
 33 36  0  0  0  0  0  0  0  0999 V2000
  -26.3783   19.9634  -18.5370 C   0  0  0  0  0  0
  -26.0429   20.5560  -17.2067 C   0  0  0  0  0  0
  -26.1666   21.9355  -17.0177 C   0  0  0  0  0  0
  -25.9710   22.4754  -15.7540 C   0  0  0  0  0  0
  -25.6566   21.6398  -14.6691 C   0  0  0  0  0  0
  -25.3054   22.2484  -13.3422 C   0  0  0  0  0  0
  -26.2092   22.1754  -12.2614 O   0  0  0  0  0  0
  -25.6130   22.3324  -11.0222 C   0  0  0  0  0  0
  -24.3622   21.9346  -10.5394 C   0  0  0  0  0  0
  -24.3337   22.0223   -9.0611 C   0  0  0  0  0  0
  -25.1632   22.6810   -8.1803 C   0  0  0  0  0  0
  -26.2878   23.1762   -8.7273 C   0  0  0  0  0  0
  -26.5249   22.9558  -10.1009 C   0  0  0  0  0  0
  -22.9575   21.5966  -11.4255 C   0  0  0  0  0  0
  -22.4593   22.5098  -12.9014 N   0  0  0  0  0  0
  -20.7741   21.9070  -13.4733 N   0  0  0  0  0  0
  -20.3300   22.2333  -14.3376 H   0  0  0  0  0  0
  -20.1488   20.5162  -12.5005 C   0  0  0  0  0  0
  -21.2599   20.3095  -11.1976 C   0  0  0  0  0  0
  -19.5979   19.3233  -13.1204 C   0  0  0  0  0  0
  -19.6214   18.2445  -12.5400 O   0  0  0  0  0  0
  -18.9912   19.3969  -14.3922 N   0  0  0  0  0  0
  -18.4220   20.2973  -15.2863 N   0  0  0  0  0  0
  -17.3325   20.2999  -15.9943 C   0  0  0  0  0  0
  -16.2374   19.3601  -15.9996 C   0  0  0  0  0  0
  -16.8381   17.8972  -16.3501 C   0  0  0  0  0  0
  -16.2941   16.7708  -17.5743 N   0  0  0  0  0  0
  -14.9247   16.9493  -18.4908 C   0  0  0  0  0  0
  -14.1699   18.4411  -18.3904 C   0  0  0  0  0  0
  -14.9134   19.7602  -16.8847 C   0  0  0  0  0  0
  -25.4316   20.2811  -14.8829 C   0  0  0  0  0  0
  -25.6296   19.7399  -16.1463 C   0  0  0  0  0  0
  -18.8436   18.4573  -14.7414 H   0  0  0  0  0  0
  1  2  1  0  0  0
  2  3  2  0  0  0
  2 32  1  0  0  0
  3  4  1  0  0  0
  4  5  2  0  0  0
  5  6  1  0  0  0
  5 31  1  0  0  0
  6  7  1  0  0  0
  7  8  1  0  0  0
  8  9  2  0  0  0
  8 13  1  0  0  0
  9 10  1  0  0  0
  9 14  1  0  0  0
 10 11  2  0  0  0
 11 12  1  0  0  0
 12 13  2  0  0  0
 14 15  2  0  0  0
 14 19  1  0  0  0
 15 16  1  0  0  0
 16 17  1  0  0  0
 16 18  1  0  0  0
 18 19  2  0  0  0
 18 20  1  0  0  0
 20 21  2  0  0  0
 20 22  1  0  0  0
 22 23  1  0  0  0
 22 33  1  0  0  0
 23 24  2  0  0  0
 24 25  1  0  0  0
 25 26  2  0  0  0
 25 30  1  0  0  0
 26 27  1  0  0  0
 27 28  2  0  0  0
 28 29  1  0  0  0
 29 30  2  0  0  0
 31 32  2  0  0  0
M  END
>  <CHROM.0>
-62.67520731,-72.93465535,84.86960366,-58.12966863,-31.88226968,60.54090198
-157.21849490,-45.86460302

>  <CHROM.1>
107.78231278,158.39074398,-35.04204906,37.06138410,-153.80512492,133.39560160
57.81455355,-21.92560783,20.61760750,-14.02136592,2.62199255,-0.24587942
1.32668289

>  <Name>
F1092-2492

>  <RI>
1.29744e+07

>  <Rbt.Current_Directory>
/home/adria/Escritorio/rDock_CMTR_LC/2pxcA_model/inputs_sah

>  <Rbt.Executable>
rbdock ($Id: //depot/dev/client3/rdock/2013.1/src/exe/rbdock.cxx#4 $)

>  <Rbt.Library>
libRbt.so (2013.1, Build901 2013/11/27)

>  <Rbt.Parameter_File>
/home/adria/Escritorio/rDock_2013.1_src/data/scripts/dock.prm

>  <Rbt.Receptor>
sah_rdock.prm

>  <SCORE>
-270.136

>  <SCORE.INTER>
-13.7893

>  <SCORE.INTER.CONST>
1

>  <SCORE.INTER.POLAR>
-0.638977

>  <SCORE.INTER.REPUL>
0

>  <SCORE.INTER.ROT>
7

>  <SCORE.INTER.VDW>
-24.0167

>  <SCORE.INTER.norm>
-0.444815

>  <SCORE.INTRA>
-251.036

>  <SCORE.INTRA.DIHEDRAL>
3.18104

>  <SCORE.INTRA.DIHEDRAL.0>
15.1799

>  <SCORE.INTRA.POLAR>
0

>  <SCORE.INTRA.POLAR.0>
0

>  <SCORE.INTRA.REPUL>
0

>  <SCORE.INTRA.REPUL.0>
0

>  <SCORE.INTRA.VDW>
-252.626

>  <SCORE.INTRA.VDW.0>
251.097

>  <SCORE.INTRA.norm>
-8.09792

>  <SCORE.RESTR>
0

>  <SCORE.RESTR.CAVITY>
0

>  <SCORE.RESTR.norm>
0

>  <SCORE.SYSTEM>
-5.3109

>  <SCORE.SYSTEM.CONST>
0

>  <SCORE.SYSTEM.DIHEDRAL>
9.02186

>  <SCORE.SYSTEM.POLAR>
-3.77974

>  <SCORE.SYSTEM.REPUL>
0.060732

>  <SCORE.SYSTEM.VDW>
2.72561

>  <SCORE.SYSTEM.norm>
-0.171319

>  <SCORE.heavy>
31

>  <SCORE.norm>
-8.71406

$$$$
F1092-2492
  rDOCK(R)          3D
libRbt.so/2013.1/901 2013/11/27
 33 36  0  0  0  0  0  0  0  0999 V2000
  -19.0059   11.5432  -19.1197 C   0  0  0  0  0  0
  -18.5106   12.9096  -18.7717 C   0  0  0  0  0  0
  -17.8188   13.6550  -19.7308 C   0  0  0  0  0  0
  -17.4608   14.9670  -19.4532 C   0  0  0  0  0  0
  -17.7970   15.5453  -18.2176 C   0  0  0  0  0  0
  -17.2792   16.9120  -17.8735 C   0  0  0  0  0  0
  -16.2701   17.0692  -16.9001 O   0  0  0  0  0  0
  -15.9588   18.3896  -16.6254 C   0  0  0  0  0  0
  -16.7585   19.4664  -16.2295 C   0  0  0  0  0  0
  -16.0236   20.7403  -16.4050 C   0  0  0  0  0  0
  -14.6800   20.9901  -16.5789 C   0  0  0  0  0  0
  -13.9286   19.8988  -16.8106 C   0  0  0  0  0  0
  -14.5668   18.6423  -16.8848 C   0  0  0  0  0  0
  -18.2633   19.4216  -15.4509 C   0  0  0  0  0  0
  -19.3758   20.8393  -15.3372 N   0  0  0  0  0  0
  -20.9872   20.3094  -14.5290 N   0  0  0  0  0  0
  -21.7356   20.9692  -14.2944 H   0  0  0  0  0  0
  -20.9706   18.5887  -13.9715 C   0  0  0  0  0  0
  -19.4934   17.9145  -14.5530 C   0  0  0  0  0  0
  -21.4204   18.2000  -12.6458 C   0  0  0  0  0  0
  -20.6653   17.6301  -11.8671 O   0  0  0  0  0  0
  -22.7519   18.4416  -12.2460 N   0  0  0  0  0  0
  -24.0190   18.7079  -12.7534 N   0  0  0  0  0  0
  -25.0712   19.3090  -12.2845 C   0  0  0  0  0  0
  -25.3186   19.8316  -10.9623 C   0  0  0  0  0  0
  -24.7278   18.7718   -9.8893 C   0  0  0  0  0  0
  -23.6418   19.0800   -8.5518 N   0  0  0  0  0  0
  -23.1593   20.5822   -8.0443 C   0  0  0  0  0  0
  -23.5554   21.8558   -9.0573 C   0  0  0  0  0  0
  -24.8664   21.3840  -10.6756 C   0  0  0  0  0  0
  -18.3927   14.7668  -17.2270 C   0  0  0  0  0  0
  -18.7535   13.4550  -17.5049 C   0  0  0  0  0  0
  -22.8293   18.2858  -11.2478 H   0  0  0  0  0  0
  1  2  1  0  0  0
  2  3  2  0  0  0
  2 32  1  0  0  0
  3  4  1  0  0  0
  4  5  2  0  0  0
  5  6  1  0  0  0
  5 31  1  0  0  0
  6  7  1  0  0  0
  7  8  1  0  0  0
  8  9  2  0  0  0
  8 13  1  0  0  0
  9 10  1  0  0  0
  9 14  1  0  0  0
 10 11  2  0  0  0
 11 12  1  0  0  0
 12 13  2  0  0  0
 14 15  2  0  0  0
 14 19  1  0  0  0
 15 16  1  0  0  0
 16 17  1  0  0  0
 16 18  1  0  0  0
 18 19  2  0  0  0
 18 20  1  0  0  0
 20 21  2  0  0  0
 20 22  1  0  0  0
 22 23  1  0  0  0
 22 33  1  0  0  0
 23 24  2  0  0  0
 24 25  1  0  0  0
 25 26  2  0  0  0
 25 30  1  0  0  0
 26 27  1  0  0  0
 27 28  2  0  0  0
 28 29  1  0  0  0
 29 30  2  0  0  0
 31 32  2  0  0  0
M  END
>  <CHROM.0>
179.27695099,61.65941465,-6.78745900,64.74870747,168.03189380,177.16461931
-39.31363681,-159.57752177

>  <CHROM.1>
-107.98390338,-175.88377164,54.77922251,-164.97250715,-120.66918198,-154.07197480
-40.84620061,-19.74638801,18.04352450,-14.72418522,0.73616543,-0.54999149
-2.56472673

>  <Name>
F1092-2492

>  <RI>
1.29744e+07

>  <Rbt.Current_Directory>
/home/adria/Escritorio/rDock_CMTR_LC/2pxcA_model/inputs_sah

>  <Rbt.Executable>
rbdock ($Id: //depot/dev/client3/rdock/2013.1/src/exe/rbdock.cxx#4 $)

>  <Rbt.Library>
libRbt.so (2013.1, Build901 2013/11/27)

>  <Rbt.Parameter_File>
/home/adria/Escritorio/rDock_2013.1_src/data/scripts/dock.prm

>  <Rbt.Receptor>
sah_rdock.prm

>  <SCORE>
-264.404

>  <SCORE.INTER>
-13.1547

>  <SCORE.INTER.CONST>
1

>  <SCORE.INTER.POLAR>
-1.16613

>  <SCORE.INTER.REPUL>
0.00631843

>  <SCORE.INTER.ROT>
7

>  <SCORE.INTER.VDW>
-21.6214

>  <SCORE.INTER.norm>
-0.424344

>  <SCORE.INTRA>
-250.166

>  <SCORE.INTRA.DIHEDRAL>
5.52696

>  <SCORE.INTRA.DIHEDRAL.0>
15.1799

>  <SCORE.INTRA.POLAR>
0

>  <SCORE.INTRA.POLAR.0>
0

>  <SCORE.INTRA.REPUL>
0

>  <SCORE.INTRA.REPUL.0>
0

>  <SCORE.INTRA.VDW>
-252.93

>  <SCORE.INTRA.VDW.0>
251.097

>  <SCORE.INTRA.norm>
-8.06988

>  <SCORE.RESTR>
0.414914

>  <SCORE.RESTR.CAVITY>
0.414914

>  <SCORE.RESTR.norm>
0.0133843

>  <SCORE.SYSTEM>
-1.49804

>  <SCORE.SYSTEM.CONST>
0

>  <SCORE.SYSTEM.DIHEDRAL>
5.85942

>  <SCORE.SYSTEM.POLAR>
-4.11447

>  <SCORE.SYSTEM.VDW>
9.56144

>  <SCORE.SYSTEM.norm>
-0.0483238

>  <SCORE.heavy>
31

>  <SCORE.norm>
-8.52917

$$$$
F1092-2492
  rDOCK(R)          3D
libRbt.so/2013.1/901 2013/11/27
 33 36  0  0  0  0  0  0  0  0999 V2000
  -21.8671   26.2072   -9.4092 C   0  0  0  0  0  0
  -22.1482   25.0213  -10.2741 C   0  0  0  0  0  0
  -22.9340   23.9780   -9.7761 C   0  0  0  0  0  0
  -23.2959   22.9315  -10.6130 C   0  0  0  0  0  0
  -22.8802   22.9233  -11.9551 C   0  0  0  0  0  0
  -23.1543   21.7189  -12.8088 C   0  0  0  0  0  0
  -24.2918   20.9190  -12.5710 O   0  0  0  0  0  0
  -24.0061   19.7043  -11.9722 C   0  0  0  0  0  0
  -23.0681   18.7154  -12.2857 C   0  0  0  0  0  0
  -23.3893   17.4605  -11.5674 C   0  0  0  0  0  0
  -24.2081   17.2249  -10.4849 C   0  0  0  0  0  0
  -24.9867   18.2627  -10.1300 C   0  0  0  0  0  0
  -24.9211   19.4484  -10.8924 C   0  0  0  0  0  0
  -21.6274   18.8801  -13.1631 C   0  0  0  0  0  0
  -20.1925   17.8059  -12.9452 N   0  0  0  0  0  0
  -18.8813   18.2444  -14.2175 N   0  0  0  0  0  0
  -17.9517   17.8128  -14.2303 H   0  0  0  0  0  0
  -19.3249   19.6750  -15.2315 C   0  0  0  0  0  0
  -20.9500   20.0708  -14.8105 C   0  0  0  0  0  0
  -18.3996   20.7684  -15.4746 C   0  0  0  0  0  0
  -18.5824   21.8709  -14.9721 O   0  0  0  0  0  0
  -17.2903   20.5866  -16.3274 N   0  0  0  0  0  0
  -16.8068   19.7640  -17.3392 N   0  0  0  0  0  0
  -16.7379   18.4765  -17.5003 C   0  0  0  0  0  0
  -17.0607   17.4159  -16.5766 C   0  0  0  0  0  0
  -18.4709   16.7659  -17.0376 C   0  0  0  0  0  0
  -18.8453   15.0778  -17.3088 N   0  0  0  0  0  0
  -17.8339   13.8111  -16.9627 C   0  0  0  0  0  0
  -16.2603   14.2230  -16.5634 C   0  0  0  0  0  0
  -15.8890   16.3059  -16.2741 C   0  0  0  0  0  0
  -22.0115   23.9100  -12.4178 C   0  0  0  0  0  0
  -21.6511   24.9586  -11.5818 C   0  0  0  0  0  0
  -16.6641   21.3767  -16.2260 H   0  0  0  0  0  0
  1  2  1  0  0  0
  2  3  2  0  0  0
  2 32  1  0  0  0
  3  4  1  0  0  0
  4  5  2  0  0  0
  5  6  1  0  0  0
  5 31  1  0  0  0
  6  7  1  0  0  0
  7  8  1  0  0  0
  8  9  2  0  0  0
  8 13  1  0  0  0
  9 10  1  0  0  0
  9 14  1  0  0  0
 10 11  2  0  0  0
 11 12  1  0  0  0
 12 13  2  0  0  0
 14 15  2  0  0  0
 14 19  1  0  0  0
 15 16  1  0  0  0
 16 17  1  0  0  0
 16 18  1  0  0  0
 18 19  2  0  0  0
 18 20  1  0  0  0
 20 21  2  0  0  0
 20 22  1  0  0  0
 22 23  1  0  0  0
 22 33  1  0  0  0
 23 24  2  0  0  0
 24 25  1  0  0  0
 25 26  2  0  0  0
 25 30  1  0  0  0
 26 27  1  0  0  0
 27 28  2  0  0  0
 28 29  1  0  0  0
 29 30  2  0  0  0
 31 32  2  0  0  0
M  END
>  <CHROM.0>
-60.76658333,-71.58533569,-9.30255791,-60.46589907,-31.63905956,179.99906245
83.35939383,-158.27309926

>  <CHROM.1>
30.51120194,-105.88265054,-49.50503063,153.16228206,-109.69395864,-46.51211800
105.08305622,-20.67951666,19.80730100,-13.61197139,-2.37228474,-0.64626684
-2.92080469

>  <Name>
F1092-2492

>  <RI>
1.29744e+07

>  <Rbt.Current_Directory>
/home/adria/Escritorio/rDock_CMTR_LC/2pxcA_model/inputs_sah

>  <Rbt.Executable>
rbdock ($Id: //depot/dev/client3/rdock/2013.1/src/exe/rbdock.cxx#4 $)

>  <Rbt.Library>
libRbt.so (2013.1, Build901 2013/11/27)

>  <Rbt.Parameter_File>
/home/adria/Escritorio/rDock_2013.1_src/data/scripts/dock.prm

>  <Rbt.Receptor>
sah_rdock.prm

>  <SCORE>
-267.398

>  <SCORE.INTER>
-14.2019

>  <SCORE.INTER.CONST>
1

>  <SCORE.INTER.POLAR>
-1.67315

>  <SCORE.INTER.REPUL>
0

>  <SCORE.INTER.ROT>
7

>  <SCORE.INTER.VDW>
-20.9132

>  <SCORE.INTER.norm>
-0.458127

>  <SCORE.INTRA>
-246.089

>  <SCORE.INTRA.DIHEDRAL>
16.4926

>  <SCORE.INTRA.DIHEDRAL.0>
15.1799

>  <SCORE.INTRA.POLAR>
0

>  <SCORE.INTRA.POLAR.0>
0

>  <SCORE.INTRA.REPUL>
0

>  <SCORE.INTRA.REPUL.0>
0

>  <SCORE.INTRA.VDW>
-254.336

>  <SCORE.INTRA.VDW.0>
251.097

>  <SCORE.INTRA.norm>
-7.93837

>  <SCORE.RESTR>
0

>  <SCORE.RESTR.CAVITY>
0

>  <SCORE.RESTR.norm>
0

>  <SCORE.SYSTEM>
-7.10653

>  <SCORE.SYSTEM.CONST>
0

>  <SCORE.SYSTEM.DIHEDRAL>
9.17302

>  <SCORE.SYSTEM.POLAR>
-4.57242

>  <SCORE.SYSTEM.REPUL>
0.035912

>  <SCORE.SYSTEM.VDW>
3.67361

>  <SCORE.SYSTEM.norm>
-0.229243

>  <SCORE.heavy>
31

>  <SCORE.norm>
-8.62574

$$$$
F1092-2492
  rDOCK(R)          3D
libRbt.so/2013.1/901 2013/11/27
 33 36  0  0  0  0  0  0  0  0999 V2000
  -14.7172   19.2936  -17.2707 C   0  0  0  0  0  0
  -16.0286   19.2568  -16.5549 C   0  0  0  0  0  0
  -16.5474   18.0292  -16.1331 C   0  0  0  0  0  0
  -17.7037   17.9999  -15.3659 C   0  0  0  0  0  0
  -18.3463   19.1975  -15.0096 C   0  0  0  0  0  0
  -19.6714   19.1467  -14.3054 C   0  0  0  0  0  0
  -19.7348   18.8823  -12.9210 O   0  0  0  0  0  0
  -21.0132   18.9557  -12.3955 C   0  0  0  0  0  0
  -21.7054   20.0078  -11.7875 C   0  0  0  0  0  0
  -22.9031   19.4927  -11.0846 C   0  0  0  0  0  0
  -23.5642   18.2889  -11.1923 C   0  0  0  0  0  0
  -22.9210   17.3547  -11.9153 C   0  0  0  0  0  0
  -21.6549   17.6697  -12.4530 C   0  0  0  0  0  0
  -21.4305   21.6725  -11.9482 C   0  0  0  0  0  0
  -19.9740   22.5158  -11.2942 N   0  0  0  0  0  0
  -19.9999   24.3174  -11.8269 N   0  0  0  0  0  0
  -19.3086   25.0028  -11.5060 H   0  0  0  0  0  0
  -21.4996   24.7699  -12.7313 C   0  0  0  0  0  0
  -22.3652   23.2994  -12.9826 C   0  0  0  0  0  0
  -22.2643   25.9638  -12.4143 C   0  0  0  0  0  0
  -21.7281   26.9348  -11.8938 O   0  0  0  0  0  0
  -23.6515   26.0097  -12.6688 N   0  0  0  0  0  0
  -24.7530   25.1922  -12.8978 N   0  0  0  0  0  0
  -25.5689   24.5395  -12.1254 C   0  0  0  0  0  0
  -25.5280   24.3507  -10.6953 C   0  0  0  0  0  0
  -26.5737   23.1725  -10.3183 C   0  0  0  0  0  0
  -26.2860   21.7402   -9.3543 N   0  0  0  0  0  0
  -24.8998   21.4304   -8.5001 C   0  0  0  0  0  0
  -23.6116   22.4569   -8.8042 C   0  0  0  0  0  0
  -24.0482   24.1659  -10.0079 C   0  0  0  0  0  0
  -17.8853   20.4099  -15.5194 C   0  0  0  0  0  0
  -16.7271   20.4402  -16.2849 C   0  0  0  0  0  0
  -23.9731   26.9653  -12.5686 H   0  0  0  0  0  0
  1  2  1  0  0  0
  2  3  2  0  0  0
  2 32  1  0  0  0
  3  4  1  0  0  0
  4  5  2  0  0  0
  5  6  1  0  0  0
  5 31  1  0  0  0
  6  7  1  0  0  0
  7  8  1  0  0  0
  8  9  2  0  0  0
  8 13  1  0  0  0
  9 10  1  0  0  0
  9 14  1  0  0  0
 10 11  2  0  0  0
 11 12  1  0  0  0
 12 13  2  0  0  0
 14 15  2  0  0  0
 14 19  1  0  0  0
 15 16  1  0  0  0
 16 17  1  0  0  0
 16 18  1  0  0  0
 18 19  2  0  0  0
 18 20  1  0  0  0
 20 21  2  0  0  0
 20 22  1  0  0  0
 22 23  1  0  0  0
 22 33  1  0  0  0
 23 24  2  0  0  0
 24 25  1  0  0  0
 25 26  2  0  0  0
 25 30  1  0  0  0
 26 27  1  0  0  0
 27 28  2  0  0  0
 28 29  1  0  0  0
 29 30  2  0  0  0
 31 32  2  0  0  0
M  END
>  <CHROM.0>
177.91984458,-167.11176225,77.81293806,-61.12514783,-31.05639524,-174.54611331
83.13249356,-44.24778651

>  <CHROM.1>
79.22447497,175.89392349,-93.37782243,-69.11122670,26.34110672,82.90244284
-166.48892782,-21.44151644,21.56441587,-12.60469162,-0.46178825,0.62517486
-0.09869289

>  <Name>
F1092-2492

>  <RI>
1.29744e+07

>  <Rbt.Current_Directory>
/home/adria/Escritorio/rDock_CMTR_LC/2pxcA_model/inputs_sah

>  <Rbt.Executable>
rbdock ($Id: //depot/dev/client3/rdock/2013.1/src/exe/rbdock.cxx#4 $)

>  <Rbt.Library>
libRbt.so (2013.1, Build901 2013/11/27)

>  <Rbt.Parameter_File>
/home/adria/Escritorio/rDock_2013.1_src/data/scripts/dock.prm

>  <Rbt.Receptor>
sah_rdock.prm

>  <SCORE>
-271.561

>  <SCORE.INTER>
-19.4488

>  <SCORE.INTER.CONST>
1

>  <SCORE.INTER.POLAR>
-1.29969

>  <SCORE.INTER.REPUL>
0.00347383

>  <SCORE.INTER.ROT>
7

>  <SCORE.INTER.VDW>
-27.4472

>  <SCORE.INTER.norm>
-0.62738

>  <SCORE.INTRA>
-248.52

>  <SCORE.INTRA.DIHEDRAL>
11.9194

>  <SCORE.INTRA.DIHEDRAL.0>
15.1799

>  <SCORE.INTRA.POLAR>
0

>  <SCORE.INTRA.POLAR.0>
0

>  <SCORE.INTRA.REPUL>
0

>  <SCORE.INTRA.REPUL.0>
0

>  <SCORE.INTRA.VDW>
-254.48

>  <SCORE.INTRA.VDW.0>
251.097

>  <SCORE.INTRA.norm>
-8.01679

>  <SCORE.RESTR>
0

>  <SCORE.RESTR.CAVITY>
0

>  <SCORE.RESTR.norm>
0

>  <SCORE.SYSTEM>
-3.59232

>  <SCORE.SYSTEM.CONST>
0

>  <SCORE.SYSTEM.DIHEDRAL>
8.51997

>  <SCORE.SYSTEM.POLAR>
-3.34115

>  <SCORE.SYSTEM.REPUL>
0.0264229

>  <SCORE.SYSTEM.VDW>
3.37548

>  <SCORE.SYSTEM.norm>
-0.115881

>  <SCORE.heavy>
31

>  <SCORE.norm>
-8.76005

$$$$
F1092-2492
  rDOCK(R)          3D
libRbt.so/2013.1/901 2013/11/27
 33 36  0  0  0  0  0  0  0  0999 V2000
  -15.9111   16.3468  -18.0572 C   0  0  0  0  0  0
  -17.1584   16.6824  -17.3055 C   0  0  0  0  0  0
  -17.7549   15.7120  -16.4953 C   0  0  0  0  0  0
  -18.8435   16.0529  -15.7044 C   0  0  0  0  0  0
  -19.3397   17.3673  -15.7131 C   0  0  0  0  0  0
  -20.6029   17.6877  -14.9673 C   0  0  0  0  0  0
  -21.0095   16.8913  -13.8761 O   0  0  0  0  0  0
  -22.1511   17.3512  -13.2428 C   0  0  0  0  0  0
  -22.4420   18.5756  -12.6326 C   0  0  0  0  0  0
  -23.6598   18.4540  -11.7984 C   0  0  0  0  0  0
  -24.6498   17.4962  -11.7814 C   0  0  0  0  0  0
  -24.3830   16.3961  -12.5079 C   0  0  0  0  0  0
  -23.1414   16.3104  -13.1732 C   0  0  0  0  0  0
  -21.7128   20.0808  -12.9067 C   0  0  0  0  0  0
  -20.1064   20.2860  -13.7052 N   0  0  0  0  0  0
  -19.7522   22.1160  -13.9417 N   0  0  0  0  0  0
  -18.8617   22.4680  -14.3073 H   0  0  0  0  0  0
  -21.0191   23.1847  -13.2174 C   0  0  0  0  0  0
  -22.2818   22.1350  -12.6895 C   0  0  0  0  0  0
  -20.6849   24.3224  -12.3780 C   0  0  0  0  0  0
  -19.7380   24.2751  -11.6018 O   0  0  0  0  0  0
  -21.4723   25.4927  -12.4177 N   0  0  0  0  0  0
  -22.7263   25.9595  -12.7968 N   0  0  0  0  0  0
  -23.9228   25.4534  -12.7738 C   0  0  0  0  0  0
  -24.3500   24.1191  -12.4279 C   0  0  0  0  0  0
  -25.3261   24.2269  -11.1397 C   0  0  0  0  0  0
  -26.9261   23.5473  -10.9365 N   0  0  0  0  0  0
  -27.6593   22.5054  -11.9968 C   0  0  0  0  0  0
  -26.8929   22.3089  -13.4730 C   0  0  0  0  0  0
  -24.9551   23.1905  -13.6396 C   0  0  0  0  0  0
  -18.8090   18.3029  -16.5993 C   0  0  0  0  0  0
  -17.7183   17.9633  -17.3889 C   0  0  0  0  0  0
  -20.9875   26.2326  -11.9236 H   0  0  0  0  0  0
  1  2  1  0  0  0
  2  3  2  0  0  0
  2 32  1  0  0  0
  3  4  1  0  0  0
  4  5  2  0  0  0
  5  6  1  0  0  0
  5 31  1  0  0  0
  6  7  1  0  0  0
  7  8  1  0  0  0
  8  9  2  0  0  0
  8 13  1  0  0  0
  9 10  1  0  0  0
  9 14  1  0  0  0
 10 11  2  0  0  0
 11 12  1  0  0  0
 12 13  2  0  0  0
 14 15  2  0  0  0
 14 19  1  0  0  0
 15 16  1  0  0  0
 16 17  1  0  0  0
 16 18  1  0  0  0
 18 19  2  0  0  0
 18 20  1  0  0  0
 20 21  2  0  0  0
 20 22  1  0  0  0
 22 23  1  0  0  0
 22 33  1  0  0  0
 23 24  2  0  0  0
 24 25  1  0  0  0
 25 26  2  0  0  0
 25 30  1  0  0  0
 26 27  1  0  0  0
 27 28  2  0  0  0
 28 29  1  0  0  0
 29 30  2  0  0  0
 31 32  2  0  0  0
M  END
>  <CHROM.0>
-178.40495177,-70.63825744,73.65247258,148.19501303,-30.78686678,-58.82499332
-36.81871718,-164.79620337

>  <CHROM.1>
24.77033327,176.60639488,-57.90379822,-18.24911687,-36.45073694,35.85903742
118.24960467,-21.79784473,20.38537202,-13.65106768,-0.87419827,0.43329605
0.16941551

>  <Name>
F1092-2492

>  <RI>
1.29744e+07

>  <Rbt.Current_Directory>
/home/adria/Escritorio/rDock_CMTR_LC/2pxcA_model/inputs_sah

>  <Rbt.Executable>
rbdock ($Id: //depot/dev/client3/rdock/2013.1/src/exe/rbdock.cxx#4 $)

>  <Rbt.Library>
libRbt.so (2013.1, Build901 2013/11/27)

>  <Rbt.Parameter_File>
/home/adria/Escritorio/rDock_2013.1_src/data/scripts/dock.prm

>  <Rbt.Receptor>
sah_rdock.prm

>  <SCORE>
-265.139

>  <SCORE.INTER>
-13.3486

>  <SCORE.INTER.CONST>
1

>  <SCORE.INTER.POLAR>
-0.709831

>  <SCORE.INTER.REPUL>
0.0365649

>  <SCORE.INTER.ROT>
7

>  <SCORE.INTER.VDW>
-23.518

>  <SCORE.INTER.norm>
-0.430601

>  <SCORE.INTRA>
-247.758

>  <SCORE.INTRA.DIHEDRAL>
10.8565

>  <SCORE.INTRA.DIHEDRAL.0>
15.1799

>  <SCORE.INTRA.POLAR>
0

>  <SCORE.INTRA.POLAR.0>
0

>  <SCORE.INTRA.REPUL>
0

>  <SCORE.INTRA.REPUL.0>
0

>  <SCORE.INTRA.VDW>
-253.187

>  <SCORE.INTRA.VDW.0>
251.097

>  <SCORE.INTRA.norm>
-7.99221

>  <SCORE.RESTR>
0.0698325

>  <SCORE.RESTR.CAVITY>
0.0698325

>  <SCORE.RESTR.norm>
0.00225266

>  <SCORE.SYSTEM>
-4.1016

>  <SCORE.SYSTEM.CONST>
0

>  <SCORE.SYSTEM.DIHEDRAL>
9.89331

>  <SCORE.SYSTEM.POLAR>
-4.00839

>  <SCORE.SYSTEM.REPUL>
0.0340481

>  <SCORE.SYSTEM.VDW>
4.41002

>  <SCORE.SYSTEM.norm>
-0.13231

>  <SCORE.heavy>
31

>  <SCORE.norm>
-8.55287

$$$$
F1092-2492
  rDOCK(R)          3D
libRbt.so/2013.1/901 2013/11/27
 33 36  0  0  0  0  0  0  0  0999 V2000
  -24.1359   19.4568  -17.1840 C   0  0  0  0  0  0
  -23.0879   18.6613  -16.4753 C   0  0  0  0  0  0
  -21.9176   18.3077  -17.1531 C   0  0  0  0  0  0
  -20.8919   17.6727  -16.4664 C   0  0  0  0  0  0
  -21.0262   17.3921  -15.0962 C   0  0  0  0  0  0
  -19.9743   16.5778  -14.3998 C   0  0  0  0  0  0
  -18.8074   17.1945  -13.9015 O   0  0  0  0  0  0
  -18.2284   18.0907  -14.7832 C   0  0  0  0  0  0
  -18.5520   19.4125  -15.1058 C   0  0  0  0  0  0
  -17.8591   19.8190  -16.3501 C   0  0  0  0  0  0
  -16.7877   19.2586  -17.0104 C   0  0  0  0  0  0
  -16.4204   18.0450  -16.5616 C   0  0  0  0  0  0
  -17.1608   17.4601  -15.5122 C   0  0  0  0  0  0
  -19.4146   20.5357  -14.1748 C   0  0  0  0  0  0
  -19.8363   20.2844  -12.4371 N   0  0  0  0  0  0
  -20.6556   21.8336  -11.7597 N   0  0  0  0  0  0
  -21.0466   21.8883  -10.8138 H   0  0  0  0  0  0
  -20.9204   23.1059  -13.0178 C   0  0  0  0  0  0
  -20.1354   22.5354  -14.4437 C   0  0  0  0  0  0
  -22.1920   23.7920  -13.1695 C   0  0  0  0  0  0
  -22.2490   25.0159  -13.1836 O   0  0  0  0  0  0
  -23.3916   23.0554  -13.2667 N   0  0  0  0  0  0
  -23.9365   21.8046  -12.9972 N   0  0  0  0  0  0
  -24.9735   21.3965  -12.3291 C   0  0  0  0  0  0
  -25.8914   22.1478  -11.5073 C   0  0  0  0  0  0
  -26.4686   21.1523  -10.3673 C   0  0  0  0  0  0
  -26.5202   21.4063   -8.6363 N   0  0  0  0  0  0
  -26.1306   22.8235   -7.8703 C   0  0  0  0  0  0
  -25.4018   23.9913   -8.8245 C   0  0  0  0  0  0
  -25.3630   23.5878  -10.9211 C   0  0  0  0  0  0
  -22.2337   17.6513  -14.4506 C   0  0  0  0  0  0
  -23.2592   18.2889  -15.1362 C   0  0  0  0  0  0
  -24.1372   23.6773  -13.5568 H   0  0  0  0  0  0
  1  2  1  0  0  0
  2  3  2  0  0  0
  2 32  1  0  0  0
  3  4  1  0  0  0
  4  5  2  0  0  0
  5  6  1  0  0  0
  5 31  1  0  0  0
  6  7  1  0  0  0
  7  8  1  0  0  0
  8  9  2  0  0  0
  8 13  1  0  0  0
  9 10  1  0  0  0
  9 14  1  0  0  0
 10 11  2  0  0  0
 11 12  1  0  0  0
 12 13  2  0  0  0
 14 15  2  0  0  0
 14 19  1  0  0  0
 15 16  1  0  0  0
 16 17  1  0  0  0
 16 18  1  0  0  0
 18 19  2  0  0  0
 18 20  1  0  0  0
 20 21  2  0  0  0
 20 22  1  0  0  0
 22 23  1  0  0  0
 22 33  1  0  0  0
 23 24  2  0  0  0
 24 25  1  0  0  0
 25 26  2  0  0  0
 25 30  1  0  0  0
 26 27  1  0  0  0
 27 28  2  0  0  0
 28 29  1  0  0  0
 29 30  2  0  0  0
 31 32  2  0  0  0
M  END
>  <CHROM.0>
-174.53346485,-163.83642324,-9.92523142,65.55280741,-29.72915148,-54.16772096
-154.82732730,-159.40623315

>  <CHROM.1>
84.51312446,-44.98085316,79.31072023,10.96209681,127.67187334,125.85914939
-151.29996280,-21.75516152,20.40306230,-13.67079999,0.78381614,-0.29723909
-2.56473140

>  <Name>
F1092-2492

>  <RI>
1.29744e+07

>  <Rbt.Current_Directory>
/home/adria/Escritorio/rDock_CMTR_LC/2pxcA_model/inputs_sah

>  <Rbt.Executable>
rbdock ($Id: //depot/dev/client3/rdock/2013.1/src/exe/rbdock.cxx#4 $)

>  <Rbt.Library>
libRbt.so (2013.1, Build901 2013/11/27)

>  <Rbt.Parameter_File>
/home/adria/Escritorio/rDock_2013.1_src/data/scripts/dock.prm

>  <Rbt.Receptor>
sah_rdock.prm

>  <SCORE>
-267.343

>  <SCORE.INTER>
-10.2371

>  <SCORE.INTER.CONST>
1

>  <SCORE.INTER.POLAR>
-0.849084

>  <SCORE.INTER.REPUL>
0

>  <SCORE.INTER.ROT>
7

>  <SCORE.INTER.VDW>
-19.7502

>  <SCORE.INTER.norm>
-0.330228

>  <SCORE.INTRA>
-251.536

>  <SCORE.INTRA.DIHEDRAL>
6.99435

>  <SCORE.INTRA.DIHEDRAL.0>
15.1799

>  <SCORE.INTRA.POLAR>
0

>  <SCORE.INTRA.POLAR.0>
0

>  <SCORE.INTRA.REPUL>
0

>  <SCORE.INTRA.REPUL.0>
0

>  <SCORE.INTRA.VDW>
-255.033

>  <SCORE.INTRA.VDW.0>
251.097

>  <SCORE.INTRA.norm>
-8.11406

>  <SCORE.RESTR>
0

>  <SCORE.RESTR.CAVITY>
0

>  <SCORE.RESTR.norm>
0

>  <SCORE.SYSTEM>
-5.57008

>  <SCORE.SYSTEM.CONST>
0

>  <SCORE.SYSTEM.DIHEDRAL>
10.5525

>  <SCORE.SYSTEM.POLAR>
-4.33672

>  <SCORE.SYSTEM.VDW>
3.89849

>  <SCORE.SYSTEM.norm>
-0.17968

>  <SCORE.heavy>
31

>  <SCORE.norm>
-8.62397

$$$$
F1092-2492
  rDOCK(R)          3D
libRbt.so/2013.1/901 2013/11/27
 33 36  0  0  0  0  0  0  0  0999 V2000
  -23.0469   17.8679  -11.5217 C   0  0  0  0  0  0
  -23.1913   19.3550  -11.5511 C   0  0  0  0  0  0
  -23.9923   19.9488  -12.5309 C   0  0  0  0  0  0
  -24.2247   21.3166  -12.4911 C   0  0  0  0  0  0
  -23.6634   22.0998  -11.4685 C   0  0  0  0  0  0
  -23.8016   23.5941  -11.5186 C   0  0  0  0  0  0
  -22.9115   24.3679  -12.2927 O   0  0  0  0  0  0
  -21.6547   24.5054  -11.7294 C   0  0  0  0  0  0
  -20.6266   23.5801  -11.5224 C   0  0  0  0  0  0
  -19.6295   24.1280  -10.5740 C   0  0  0  0  0  0
  -19.4049   25.4182  -10.1466 C   0  0  0  0  0  0
  -20.3539   26.3032  -10.5008 C   0  0  0  0  0  0
  -21.4727   25.8403  -11.2256 C   0  0  0  0  0  0
  -20.3495   22.1228  -12.3422 C   0  0  0  0  0  0
  -18.9665   21.0185  -11.9843 N   0  0  0  0  0  0
  -19.1271   19.4566  -13.0163 N   0  0  0  0  0  0
  -18.4116   18.7229  -13.0307 H   0  0  0  0  0  0
  -20.5212   19.5057  -14.1678 C   0  0  0  0  0  0
  -21.3933   20.9470  -13.7977 C   0  0  0  0  0  0
  -20.3844   19.1333  -15.5654 C   0  0  0  0  0  0
  -20.9520   18.1432  -16.0113 O   0  0  0  0  0  0
  -19.5617   19.8897  -16.4269 N   0  0  0  0  0  0
  -18.5156   20.8061  -16.4211 N   0  0  0  0  0  0
  -17.2210   20.6980  -16.3967 C   0  0  0  0  0  0
  -16.3994   19.5211  -16.2477 C   0  0  0  0  0  0
  -17.2138   18.2638  -16.8639 C   0  0  0  0  0  0
  -16.6615   17.0896  -18.0384 N   0  0  0  0  0  0
  -15.1081   16.9666  -18.6032 C   0  0  0  0  0  0
  -14.0815   18.2246  -18.1923 C   0  0  0  0  0  0
  -14.8462   19.6227  -16.7708 C   0  0  0  0  0  0
  -22.7822   21.5214  -10.5568 C   0  0  0  0  0  0
  -22.5512   20.1527  -10.5944 C   0  0  0  0  0  0
  -19.7376   19.6057  -17.3835 H   0  0  0  0  0  0
  1  2  1  0  0  0
  2  3  2  0  0  0
  2 32  1  0  0  0
  3  4  1  0  0  0
  4  5  2  0  0  0
  5  6  1  0  0  0
  5 31  1  0  0  0
  6  7  1  0  0  0
  7  8  1  0  0  0
  8  9  2  0  0  0
  8 13  1  0  0  0
  9 10  1  0  0  0
  9 14  1  0  0  0
 10 11  2  0  0  0
 11 12  1  0  0  0
 12 13  2  0  0  0
 14 15  2  0  0  0
 14 19  1  0  0  0
 15 16  1  0  0  0
 16 17  1  0  0  0
 16 18  1  0  0  0
 18 19  2  0  0  0
 18 20  1  0  0  0
 20 21  2  0  0  0
 20 22  1  0  0  0
 22 23  1  0  0  0
 22 33  1  0  0  0
 23 24  2  0  0  0
 24 25  1  0  0  0
 25 26  2  0  0  0
 25 30  1  0  0  0
 26 27  1  0  0  0
 27 28  2  0  0  0
 28 29  1  0  0  0
 29 30  2  0  0  0
 31 32  2  0  0  0
M  END
>  <CHROM.0>
-60.95634966,-168.07871399,108.27212214,64.30284976,-30.36512514,-179.83586369
-157.45903744,-163.90453411

>  <CHROM.1>
-82.99345606,-75.10487027,68.80541229,179.43129435,113.80853535,86.95647938
29.33576327,-20.15971697,20.97799668,-13.61307011,2.29892530,0.47205714,0.51414467

>  <Name>
F1092-2492

>  <RI>
1.29744e+07

>  <Rbt.Current_Directory>
/home/adria/Escritorio/rDock_CMTR_LC/2pxcA_model/inputs_sah

>  <Rbt.Executable>
rbdock ($Id: //depot/dev/client3/rdock/2013.1/src/exe/rbdock.cxx#4 $)

>  <Rbt.Library>
libRbt.so (2013.1, Build901 2013/11/27)

>  <Rbt.Parameter_File>
/home/adria/Escritorio/rDock_2013.1_src/data/scripts/dock.prm

>  <Rbt.Receptor>
sah_rdock.prm

>  <SCORE>
-271.158

>  <SCORE.INTER>
-13.8821

>  <SCORE.INTER.CONST>
1

>  <SCORE.INTER.POLAR>
0

>  <SCORE.INTER.REPUL>
0.0320677

>  <SCORE.INTER.ROT>
7

>  <SCORE.INTER.VDW>
-26.4424

>  <SCORE.INTER.norm>
-0.447809

>  <SCORE.INTRA>
-250.925

>  <SCORE.INTRA.DIHEDRAL>
9.62966

>  <SCORE.INTRA.DIHEDRAL.0>
15.1799

>  <SCORE.INTRA.POLAR>
0

>  <SCORE.INTRA.POLAR.0>
0

>  <SCORE.INTRA.REPUL>
0

>  <SCORE.INTRA.REPUL.0>
0

>  <SCORE.INTRA.VDW>
-255.74

>  <SCORE.INTRA.VDW.0>
251.097

>  <SCORE.INTRA.norm>
-8.09434

>  <SCORE.RESTR>
0

>  <SCORE.RESTR.CAVITY>
0

>  <SCORE.RESTR.norm>
0

>  <SCORE.SYSTEM>
-6.35129

>  <SCORE.SYSTEM.CONST>
0

>  <SCORE.SYSTEM.DIHEDRAL>
9.06044

>  <SCORE.SYSTEM.POLAR>
-4.29589

>  <SCORE.SYSTEM.VDW>
3.7245

>  <SCORE.SYSTEM.norm>
-0.20488

>  <SCORE.heavy>
31

>  <SCORE.norm>
-8.74703

$$$$
F1092-2492
  rDOCK(R)          3D
libRbt.so/2013.1/901 2013/11/27
 33 36  0  0  0  0  0  0  0  0999 V2000
  -15.4998   12.1051  -14.4103 C   0  0  0  0  0  0
  -16.2883   13.2428  -14.9736 C   0  0  0  0  0  0
  -15.6651   14.1525  -15.8327 C   0  0  0  0  0  0
  -16.4195   15.1400  -16.4511 C   0  0  0  0  0  0
  -17.8031   15.2215  -16.2201 C   0  0  0  0  0  0
  -18.5808   16.3784  -16.7779 C   0  0  0  0  0  0
  -17.9915   17.2469  -17.7205 O   0  0  0  0  0  0
  -17.0255   18.0811  -17.1849 C   0  0  0  0  0  0
  -17.0895   19.0382  -16.1672 C   0  0  0  0  0  0
  -15.8888   19.9047  -16.2044 C   0  0  0  0  0  0
  -14.6711   19.7327  -16.8251 C   0  0  0  0  0  0
  -14.6182   18.7021  -17.6879 C   0  0  0  0  0  0
  -15.7845   17.9357  -17.8974 C   0  0  0  0  0  0
  -18.2087   19.1436  -14.8987 C   0  0  0  0  0  0
  -19.4330   17.8677  -14.5333 N   0  0  0  0  0  0
  -20.3608   18.3194  -12.9632 N   0  0  0  0  0  0
  -21.1540   17.7754  -12.6092 H   0  0  0  0  0  0
  -19.8917   19.9357  -12.3003 C   0  0  0  0  0  0
  -18.5611   20.4740  -13.2566 C   0  0  0  0  0  0
  -20.8782   20.9209  -11.8916 C   0  0  0  0  0  0
  -20.6182   22.1181  -11.9130 O   0  0  0  0  0  0
  -22.1453   20.5096  -11.4265 N   0  0  0  0  0  0
  -22.8205   19.4095  -10.9088 N   0  0  0  0  0  0
  -24.0149   19.2259  -10.4314 C   0  0  0  0  0  0
  -25.0564   20.1887  -10.1652 C   0  0  0  0  0  0
  -25.1780   20.3596   -8.5590 C   0  0  0  0  0  0
  -25.1653   21.8403   -7.6260 N   0  0  0  0  0  0
  -25.1994   23.3689   -8.2659 C   0  0  0  0  0  0
  -24.9761   23.4705   -9.9228 C   0  0  0  0  0  0
  -24.9823   21.6138  -10.9776 C   0  0  0  0  0  0
  -18.4003   14.3798  -15.2835 C   0  0  0  0  0  0
  -17.6467   13.3901  -14.6665 C   0  0  0  0  0  0
  -22.7546   21.3174  -11.3733 H   0  0  0  0  0  0
  1  2  1  0  0  0
  2  3  2  0  0  0
  2 32  1  0  0  0
  3  4  1  0  0  0
  4  5  2  0  0  0
  5  6  1  0  0  0
  5 31  1  0  0  0
  6  7  1  0  0  0
  7  8  1  0  0  0
  8  9  2  0  0  0
  8 13  1  0  0  0
  9 10  1  0  0  0
  9 14  1  0  0  0
 10 11  2  0  0  0
 11 12  1  0  0  0
 12 13  2  0  0  0
 14 15  2  0  0  0
 14 19  1  0  0  0
 15 16  1  0  0  0
 16 17  1  0  0  0
 16 18  1  0  0  0
 18 19  2  0  0  0
 18 20  1  0  0  0
 20 21  2  0  0  0
 20 22  1  0  0  0
 22 23  1  0  0  0
 22 33  1  0  0  0
 23 24  2  0  0  0
 24 25  1  0  0  0
 25 26  2  0  0  0
 25 30  1  0  0  0
 26 27  1  0  0  0
 27 28  2  0  0  0
 28 29  1  0  0  0
 29 30  2  0  0  0
 31 32  2  0  0  0
M  END
>  <CHROM.0>
-60.73494522,-166.63277489,-6.44551597,-59.30163049,168.66021555,-57.42211066
-158.01788410,-162.15929072

>  <CHROM.1>
11.33262572,-71.87739140,-59.15091326,7.87525416,-153.19391704,174.22465501
-107.66492440,-19.60114457,18.50166617,-13.67072092,0.43113521,-0.73510901
3.04674055

>  <Name>
F1092-2492

>  <RI>
1.29744e+07

>  <Rbt.Current_Directory>
/home/adria/Escritorio/rDock_CMTR_LC/2pxcA_model/inputs_sah

>  <Rbt.Executable>
rbdock ($Id: //depot/dev/client3/rdock/2013.1/src/exe/rbdock.cxx#4 $)

>  <Rbt.Library>
libRbt.so (2013.1, Build901 2013/11/27)

>  <Rbt.Parameter_File>
/home/adria/Escritorio/rDock_2013.1_src/data/scripts/dock.prm

>  <Rbt.Receptor>
sah_rdock.prm

>  <SCORE>
-269.525

>  <SCORE.INTER>
-15.2914

>  <SCORE.INTER.CONST>
1

>  <SCORE.INTER.POLAR>
-0.808175

>  <SCORE.INTER.REPUL>
0.00554049

>  <SCORE.INTER.ROT>
7

>  <SCORE.INTER.VDW>
-24.9713

>  <SCORE.INTER.norm>
-0.493271

>  <SCORE.INTRA>
-253.105

>  <SCORE.INTRA.DIHEDRAL>
-1.38971

>  <SCORE.INTRA.DIHEDRAL.0>
15.1799

>  <SCORE.INTRA.POLAR>
0

>  <SCORE.INTRA.POLAR.0>
0

>  <SCORE.INTRA.REPUL>
0

>  <SCORE.INTRA.REPUL.0>
0

>  <SCORE.INTRA.VDW>
-252.41

>  <SCORE.INTRA.VDW.0>
251.097

>  <SCORE.INTRA.norm>
-8.16469

>  <SCORE.RESTR>
0

>  <SCORE.RESTR.CAVITY>
0

>  <SCORE.RESTR.norm>
0

>  <SCORE.SYSTEM>
-1.12854

>  <SCORE.SYSTEM.CONST>
0

>  <SCORE.SYSTEM.DIHEDRAL>
6.4996

>  <SCORE.SYSTEM.POLAR>
-4.22001

>  <SCORE.SYSTEM.VDW>
9.96969

>  <SCORE.SYSTEM.norm>
-0.0364044

>  <SCORE.heavy>
31

>  <SCORE.norm>
-8.69436

$$$$
F1092-2492
  rDOCK(R)          3D
libRbt.so/2013.1/901 2013/11/27
 33 36  0  0  0  0  0  0  0  0999 V2000
  -26.3077   24.2254   -9.9623 C   0  0  0  0  0  0
  -24.9283   23.8289  -10.3786 C   0  0  0  0  0  0
  -24.7472   23.1152  -11.5668 C   0  0  0  0  0  0
  -23.4619   22.8478  -12.0177 C   0  0  0  0  0  0
  -22.3487   23.2971  -11.2876 C   0  0  0  0  0  0
  -20.9691   22.8780  -11.7067 C   0  0  0  0  0  0
  -20.4616   21.6160  -11.3323 O   0  0  0  0  0  0
  -21.2800   20.5570  -11.6854 C   0  0  0  0  0  0
  -21.5114   19.9362  -12.9171 C   0  0  0  0  0  0
  -22.7251   19.0904  -12.8429 C   0  0  0  0  0  0
  -23.4222   18.6061  -11.7579 C   0  0  0  0  0  0
  -23.0576   19.1294  -10.5737 C   0  0  0  0  0  0
  -22.0505   20.1178  -10.5530 C   0  0  0  0  0  0
  -20.5057   19.9100  -14.2810 C   0  0  0  0  0  0
  -20.9711   19.1584  -15.8554 N   0  0  0  0  0  0
  -19.6299   19.4884  -17.1292 N   0  0  0  0  0  0
  -19.6485   19.0897  -18.0733 H   0  0  0  0  0  0
  -18.1928   20.3458  -16.4426 C   0  0  0  0  0  0
  -18.6168   20.7634  -14.8237 C   0  0  0  0  0  0
  -16.8326   19.9030  -16.6969 C   0  0  0  0  0  0
  -15.8741   20.5513  -16.2939 O   0  0  0  0  0  0
  -16.5931   18.7325  -17.4475 N   0  0  0  0  0  0
  -17.1957   17.8682  -18.3553 N   0  0  0  0  0  0
  -16.9774   16.6381  -18.7121 C   0  0  0  0  0  0
  -15.9033   15.7495  -18.3388 C   0  0  0  0  0  0
  -15.6709   15.8923  -16.7421 C   0  0  0  0  0  0
  -15.5944   14.6195  -15.5433 N   0  0  0  0  0  0
  -15.5762   12.9963  -15.8783 C   0  0  0  0  0  0
  -15.9087   12.5759  -17.4651 C   0  0  0  0  0  0
  -16.0065   14.1941  -18.8550 C   0  0  0  0  0  0
  -22.5334   23.9154  -10.0524 C   0  0  0  0  0  0
  -23.8188   24.1855   -9.6019 C   0  0  0  0  0  0
  -15.6162   18.4787  -17.3590 H   0  0  0  0  0  0
  1  2  1  0  0  0
  2  3  2  0  0  0
  2 32  1  0  0  0
  3  4  1  0  0  0
  4  5  2  0  0  0
  5  6  1  0  0  0
  5 31  1  0  0  0
  6  7  1  0  0  0
  7  8  1  0  0  0
  8  9  2  0  0  0
  8 13  1  0  0  0
  9 10  1  0  0  0
  9 14  1  0  0  0
 10 11  2  0  0  0
 11 12  1  0  0  0
 12 13  2  0  0  0
 14 15  2  0  0  0
 14 19  1  0  0  0
 15 16  1  0  0  0
 16 17  1  0  0  0
 16 18  1  0  0  0
 18 19  2  0  0  0
 18 20  1  0  0  0
 20 21  2  0  0  0
 20 22  1  0  0  0
 22 23  1  0  0  0
 22 33  1  0  0  0
 23 24  2  0  0  0
 24 25  1  0  0  0
 25 26  2  0  0  0
 25 30  1  0  0  0
 26 27  1  0  0  0
 27 28  2  0  0  0
 28 29  1  0  0  0
 29 30  2  0  0  0
 31 32  2  0  0  0
M  END
>  <CHROM.0>
-59.19199866,67.02894387,78.02884429,-153.57981726,167.89833258,58.49006643
-35.96773578,-161.46803450

>  <CHROM.1>
-81.33154164,54.06192742,76.19546454,-175.83539577,175.12948901,-158.76095856
44.19147768,-19.95705475,19.58473794,-14.12241214,2.62253546,0.78878151,-0.12180675

>  <Name>
F1092-2492

>  <RI>
1.29744e+07

>  <Rbt.Current_Directory>
/home/adria/Escritorio/rDock_CMTR_LC/2pxcA_model/inputs_sah

>  <Rbt.Executable>
rbdock ($Id: //depot/dev/client3/rdock/2013.1/src/exe/rbdock.cxx#4 $)

>  <Rbt.Library>
libRbt.so (2013.1, Build901 2013/11/27)

>  <Rbt.Parameter_File>
/home/adria/Escritorio/rDock_2013.1_src/data/scripts/dock.prm

>  <Rbt.Receptor>
sah_rdock.prm

>  <SCORE>
-266.161

>  <SCORE.INTER>
-12.2008

>  <SCORE.INTER.CONST>
1

>  <SCORE.INTER.POLAR>
-0.848528

>  <SCORE.INTER.REPUL>
0

>  <SCORE.INTER.ROT>
7

>  <SCORE.INTER.VDW>
-21.7158

>  <SCORE.INTER.norm>
-0.393575

>  <SCORE.INTRA>
-255.152

>  <SCORE.INTRA.DIHEDRAL>
-1.59427

>  <SCORE.INTRA.DIHEDRAL.0>
15.1799

>  <SCORE.INTRA.POLAR>
0

>  <SCORE.INTRA.POLAR.0>
0

>  <SCORE.INTRA.REPUL>
0

>  <SCORE.INTRA.REPUL.0>
0

>  <SCORE.INTRA.VDW>
-254.355

>  <SCORE.INTRA.VDW.0>
251.097

>  <SCORE.INTRA.norm>
-8.2307

>  <SCORE.RESTR>
0

>  <SCORE.RESTR.CAVITY>
0

>  <SCORE.RESTR.norm>
0

>  <SCORE.SYSTEM>
1.19114

>  <SCORE.SYSTEM.CONST>
0

>  <SCORE.SYSTEM.DIHEDRAL>
6.3538

>  <SCORE.SYSTEM.POLAR>
-3.69977

>  <SCORE.SYSTEM.VDW>
10.5935

>  <SCORE.SYSTEM.norm>
0.0384238

>  <SCORE.heavy>
31

>  <SCORE.norm>
-8.58585

$$$$
F1092-2492
  rDOCK(R)          3D
libRbt.so/2013.1/901 2013/11/27
 33 36  0  0  0  0  0  0  0  0999 V2000
  -19.7879   25.7593  -10.3981 C   0  0  0  0  0  0
  -20.9117   25.0977  -11.1278 C   0  0  0  0  0  0
  -21.0177   23.7040  -11.1090 C   0  0  0  0  0  0
  -22.1228   23.0918  -11.6840 C   0  0  0  0  0  0
  -23.1328   23.8684  -12.2764 C   0  0  0  0  0  0
  -24.2475   23.1919  -13.0209 C   0  0  0  0  0  0
  -25.5740   23.2714  -12.5471 O   0  0  0  0  0  0
  -25.6973   23.0395  -11.1881 C   0  0  0  0  0  0
  -25.3064   21.9563  -10.3945 C   0  0  0  0  0  0
  -25.9699   22.0261   -9.0721 C   0  0  0  0  0  0
  -26.6074   23.0690   -8.4366 C   0  0  0  0  0  0
  -26.8280   24.1491   -9.2072 C   0  0  0  0  0  0
  -26.4297   24.1064  -10.5604 C   0  0  0  0  0  0
  -24.1021   20.8069  -10.7123 C   0  0  0  0  0  0
  -22.6016   20.6276   -9.7241 N   0  0  0  0  0  0
  -21.6234   19.1430  -10.3320 N   0  0  0  0  0  0
  -20.6984   18.8977   -9.9650 H   0  0  0  0  0  0
  -22.3496   18.3633  -11.7937 C   0  0  0  0  0  0
  -23.8617   19.1519  -12.0517 C   0  0  0  0  0  0
  -21.5563   18.0150  -12.9600 C   0  0  0  0  0  0
  -21.8848   17.0875  -13.6902 O   0  0  0  0  0  0
  -20.3691   18.7200  -13.2505 N   0  0  0  0  0  0
  -19.4119   19.5444  -12.6689 N   0  0  0  0  0  0
  -18.3414   20.1350  -13.1090 C   0  0  0  0  0  0
  -17.6982   20.0319  -14.3967 C   0  0  0  0  0  0
  -17.6686   18.4673  -14.8149 C   0  0  0  0  0  0
  -18.2040   17.7391  -16.3137 N   0  0  0  0  0  0
  -18.6864   18.5771  -17.6599 C   0  0  0  0  0  0
  -18.9042   20.2249  -17.4534 C   0  0  0  0  0  0
  -18.2439   21.0236  -15.5863 C   0  0  0  0  0  0
  -22.9721   25.2485  -12.3855 C   0  0  0  0  0  0
  -21.8680   25.8618  -11.8082 C   0  0  0  0  0  0
  -20.0609   18.4753  -14.1842 H   0  0  0  0  0  0
  1  2  1  0  0  0
  2  3  2  0  0  0
  2 32  1  0  0  0
  3  4  1  0  0  0
  4  5  2  0  0  0
  5  6  1  0  0  0
  5 31  1  0  0  0
  6  7  1  0  0  0
  7  8  1  0  0  0
  8  9  2  0  0  0
  8 13  1  0  0  0
  9 10  1  0  0  0
  9 14  1  0  0  0
 10 11  2  0  0  0
 11 12  1  0  0  0
 12 13  2  0  0  0
 14 15  2  0  0  0
 14 19  1  0  0  0
 15 16  1  0  0  0
 16 17  1  0  0  0
 16 18  1  0  0  0
 18 19  2  0  0  0
 18 20  1  0  0  0
 20 21  2  0  0  0
 20 22  1  0  0  0
 22 23  1  0  0  0
 22 33  1  0  0  0
 23 24  2  0  0  0
 24 25  1  0  0  0
 25 26  2  0  0  0
 25 30  1  0  0  0
 26 27  1  0  0  0
 27 28  2  0  0  0
 28 29  1  0  0  0
 29 30  2  0  0  0
 31 32  2  0  0  0
M  END
>  <CHROM.0>
176.91565770,-67.77685957,-46.91156613,-64.63324973,-30.83023124,177.04964021
-37.24128276,-57.50007693

>  <CHROM.1>
114.87960635,-45.83434581,-56.00136967,115.04218944,152.12196161,-179.46571909
-43.46010121,-22.04409798,21.42165058,-12.32750354,-2.49772308,-0.56384773
-2.96784333

>  <Name>
F1092-2492

>  <RI>
1.29744e+07

>  <Rbt.Current_Directory>
/home/adria/Escritorio/rDock_CMTR_LC/2pxcA_model/inputs_sah

>  <Rbt.Executable>
rbdock ($Id: //depot/dev/client3/rdock/2013.1/src/exe/rbdock.cxx#4 $)

>  <Rbt.Library>
libRbt.so (2013.1, Build901 2013/11/27)

>  <Rbt.Parameter_File>
/home/adria/Escritorio/rDock_2013.1_src/data/scripts/dock.prm

>  <Rbt.Receptor>
sah_rdock.prm

>  <SCORE>
-267.698

>  <SCORE.INTER>
-16.2491

>  <SCORE.INTER.CONST>
1

>  <SCORE.INTER.POLAR>
-0.910747

>  <SCORE.INTER.REPUL>
0

>  <SCORE.INTER.ROT>
7

>  <SCORE.INTER.VDW>
-25.5526

>  <SCORE.INTER.norm>
-0.524164

>  <SCORE.INTRA>
-246.784

>  <SCORE.INTRA.DIHEDRAL>
15.5643

>  <SCORE.INTRA.DIHEDRAL.0>
15.1799

>  <SCORE.INTRA.POLAR>
0

>  <SCORE.INTRA.POLAR.0>
0

>  <SCORE.INTRA.REPUL>
0

>  <SCORE.INTRA.REPUL.0>
0

>  <SCORE.INTRA.VDW>
-254.566

>  <SCORE.INTRA.VDW.0>
251.097

>  <SCORE.INTRA.norm>
-7.96079

>  <SCORE.RESTR>
0

>  <SCORE.RESTR.CAVITY>
0

>  <SCORE.RESTR.norm>
0

>  <SCORE.SYSTEM>
-4.6644

>  <SCORE.SYSTEM.CONST>
0

>  <SCORE.SYSTEM.DIHEDRAL>
8.86388

>  <SCORE.SYSTEM.POLAR>
-3.52997

>  <SCORE.SYSTEM.REPUL>
0.0279066

>  <SCORE.SYSTEM.VDW>
2.76602

>  <SCORE.SYSTEM.norm>
-0.150465

>  <SCORE.heavy>
31

>  <SCORE.norm>
-8.63541

$$$$
F1092-2492
  rDOCK(R)          3D
libRbt.so/2013.1/901 2013/11/27
 33 36  0  0  0  0  0  0  0  0999 V2000
  -14.5479   19.4844  -16.8072 C   0  0  0  0  0  0
  -15.2589   18.2395  -17.2290 C   0  0  0  0  0  0
  -16.5979   18.3126  -17.6238 C   0  0  0  0  0  0
  -17.2275   17.1830  -18.1281 C   0  0  0  0  0  0
  -16.5216   15.9740  -18.2472 C   0  0  0  0  0  0
  -17.2511   14.7269  -18.6559 C   0  0  0  0  0  0
  -18.5625   14.4835  -18.1961 O   0  0  0  0  0  0
  -18.6358   14.1873  -16.8460 C   0  0  0  0  0  0
  -18.6885   15.0129  -15.7184 C   0  0  0  0  0  0
  -18.4042   14.2267  -14.4958 C   0  0  0  0  0  0
  -18.4110   12.8667  -14.2758 C   0  0  0  0  0  0
  -18.5122   12.1159  -15.3873 C   0  0  0  0  0  0
  -18.5673   12.7656  -16.6388 C   0  0  0  0  0  0
  -19.2030   16.6251  -15.6250 C   0  0  0  0  0  0
  -19.8385   17.5579  -17.0344 N   0  0  0  0  0  0
  -20.4311   19.2442  -16.4551 N   0  0  0  0  0  0
  -20.7614   19.9697  -17.0994 H   0  0  0  0  0  0
  -20.1099   19.5466  -14.7010 C   0  0  0  0  0  0
  -19.5109   18.0600  -14.0639 C   0  0  0  0  0  0
  -19.5098   20.7813  -14.2254 C   0  0  0  0  0  0
  -18.7083   21.3985  -14.9169 O   0  0  0  0  0  0
  -19.8147   21.2719  -12.9380 N   0  0  0  0  0  0
  -20.3238   20.8775  -11.7053 N   0  0  0  0  0  0
  -21.2084   20.0020  -11.3322 C   0  0  0  0  0  0
  -22.0835   19.1806  -12.1334 C   0  0  0  0  0  0
  -23.1432   18.4647  -11.1392 C   0  0  0  0  0  0
  -24.8883   18.4263  -11.2664 N   0  0  0  0  0  0
  -25.7610   18.9889  -12.5584 C   0  0  0  0  0  0
  -24.9000   19.8754  -13.6890 C   0  0  0  0  0  0
  -22.7788   19.8859  -13.4432 C   0  0  0  0  0  0
  -15.2210   15.8792  -17.7555 C   0  0  0  0  0  0
  -14.5897   17.0095  -17.2533 C   0  0  0  0  0  0
  -19.4659   22.2196  -12.8557 H   0  0  0  0  0  0
  1  2  1  0  0  0
  2  3  2  0  0  0
  2 32  1  0  0  0
  3  4  1  0  0  0
  4  5  2  0  0  0
  5  6  1  0  0  0
  5 31  1  0  0  0
  6  7  1  0  0  0
  7  8  1  0  0  0
  8  9  2  0  0  0
  8 13  1  0  0  0
  9 10  1  0  0  0
  9 14  1  0  0  0
 10 11  2  0  0  0
 11 12  1  0  0  0
 12 13  2  0  0  0
 14 15  2  0  0  0
 14 19  1  0  0  0
 15 16  1  0  0  0
 16 17  1  0  0  0
 16 18  1  0  0  0
 18 19  2  0  0  0
 18 20  1  0  0  0
 20 21  2  0  0  0
 20 22  1  0  0  0
 22 23  1  0  0  0
 22 33  1  0  0  0
 23 24  2  0  0  0
 24 25  1  0  0  0
 25 26  2  0  0  0
 25 30  1  0  0  0
 26 27  1  0  0  0
 27 28  2  0  0  0
 28 29  1  0  0  0
 29 30  2  0  0  0
 31 32  2  0  0  0
M  END
>  <CHROM.0>
41.45012895,65.63071031,-8.95299824,68.02189324,168.66018960,-56.72951509
-156.55004679,-160.73502738

>  <CHROM.1>
-37.36781489,-70.25837588,84.01150849,1.86082350,-31.28296762,-32.26426195
-170.53666889,-19.32673239,17.55664318,-15.18877739,-0.62893274,0.57068454
0.21386817

>  <Name>
F1092-2492

>  <RI>
1.29744e+07

>  <Rbt.Current_Directory>
/home/adria/Escritorio/rDock_CMTR_LC/2pxcA_model/inputs_sah

>  <Rbt.Executable>
rbdock ($Id: //depot/dev/client3/rdock/2013.1/src/exe/rbdock.cxx#4 $)

>  <Rbt.Library>
libRbt.so (2013.1, Build901 2013/11/27)

>  <Rbt.Parameter_File>
/home/adria/Escritorio/rDock_2013.1_src/data/scripts/dock.prm

>  <Rbt.Receptor>
sah_rdock.prm

>  <SCORE>
-266.891

>  <SCORE.INTER>
-14.9901

>  <SCORE.INTER.CONST>
1

>  <SCORE.INTER.POLAR>
-1.25853

>  <SCORE.INTER.REPUL>
0.434249

>  <SCORE.INTER.ROT>
7

>  <SCORE.INTER.VDW>
-25.2824

>  <SCORE.INTER.norm>
-0.483552

>  <SCORE.INTRA>
-254.055

>  <SCORE.INTRA.DIHEDRAL>
1.98651

>  <SCORE.INTRA.DIHEDRAL.0>
15.1799

>  <SCORE.INTRA.POLAR>
0

>  <SCORE.INTRA.POLAR.0>
0

>  <SCORE.INTRA.REPUL>
0

>  <SCORE.INTRA.REPUL.0>
0

>  <SCORE.INTRA.VDW>
-255.049

>  <SCORE.INTRA.VDW.0>
251.097

>  <SCORE.INTRA.norm>
-8.19533

>  <SCORE.RESTR>
0

>  <SCORE.RESTR.CAVITY>
0

>  <SCORE.RESTR.norm>
0

>  <SCORE.SYSTEM>
2.15466

>  <SCORE.SYSTEM.CONST>
0

>  <SCORE.SYSTEM.DIHEDRAL>
7.80284

>  <SCORE.SYSTEM.POLAR>
-4.20239

>  <SCORE.SYSTEM.REPUL>
0.118195

>  <SCORE.SYSTEM.VDW>
11.9504

>  <SCORE.SYSTEM.norm>
0.069505

>  <SCORE.heavy>
31

>  <SCORE.norm>
-8.60938

$$$$
F1092-2492
  rDOCK(R)          3D
libRbt.so/2013.1/901 2013/11/27
 33 36  0  0  0  0  0  0  0  0999 V2000
  -24.4291   19.1259   -7.8241 C   0  0  0  0  0  0
  -24.3082   19.8224   -9.1408 C   0  0  0  0  0  0
  -23.1553   20.5600   -9.4250 C   0  0  0  0  0  0
  -22.9862   21.1096  -10.6884 C   0  0  0  0  0  0
  -23.9651   20.9206  -11.6784 C   0  0  0  0  0  0
  -23.8404   21.6391  -12.9909 C   0  0  0  0  0  0
  -23.6740   23.0396  -13.0253 O   0  0  0  0  0  0
  -22.4672   23.4724  -12.5037 C   0  0  0  0  0  0
  -21.2446   22.8158  -12.3307 C   0  0  0  0  0  0
  -20.3741   23.5895  -11.4156 C   0  0  0  0  0  0
  -20.4450   24.8997  -10.9958 C   0  0  0  0  0  0
  -21.5860   25.5346  -11.3185 C   0  0  0  0  0  0
  -22.5876   24.8166  -12.0061 C   0  0  0  0  0  0
  -20.6595   21.4579  -13.1593 C   0  0  0  0  0  0
  -19.0008   20.7820  -12.9311 N   0  0  0  0  0  0
  -18.8264   19.1975  -13.9256 N   0  0  0  0  0  0
  -17.9428   18.6841  -14.0045 H   0  0  0  0  0  0
  -20.2831   18.8255  -14.9314 C   0  0  0  0  0  0
  -21.4759   19.9906  -14.4901 C   0  0  0  0  0  0
  -20.1823   18.4521  -16.3318 C   0  0  0  0  0  0
  -21.1678   18.0760  -16.9553 O   0  0  0  0  0  0
  -18.9339   18.4820  -16.9889 N   0  0  0  0  0  0
  -17.5648   18.4878  -16.7446 N   0  0  0  0  0  0
  -16.5370   17.9764  -17.3533 C   0  0  0  0  0  0
  -16.4898   17.0892  -18.4904 C   0  0  0  0  0  0
  -14.9537   16.6146  -18.6884 C   0  0  0  0  0  0
  -14.3391   14.9840  -18.8510 N   0  0  0  0  0  0
  -15.2752   13.6249  -19.0050 C   0  0  0  0  0  0
  -16.9141   13.8337  -18.7297 C   0  0  0  0  0  0
  -17.5720   15.8545  -18.5205 C   0  0  0  0  0  0
  -25.1583   20.2750  -11.3593 C   0  0  0  0  0  0
  -25.3271   19.7228  -10.0964 C   0  0  0  0  0  0
  -19.0842   18.3812  -17.9858 H   0  0  0  0  0  0
  1  2  1  0  0  0
  2  3  2  0  0  0
  2 32  1  0  0  0
  3  4  1  0  0  0
  4  5  2  0  0  0
  5  6  1  0  0  0
  5 31  1  0  0  0
  6  7  1  0  0  0
  7  8  1  0  0  0
  8  9  2  0  0  0
  8 13  1  0  0  0
  9 10  1  0  0  0
  9 14  1  0  0  0
 10 11  2  0  0  0
 11 12  1  0  0  0
 12 13  2  0  0  0
 14 15  2  0  0  0
 14 19  1  0  0  0
 15 16  1  0  0  0
 16 17  1  0  0  0
 16 18  1  0  0  0
 18 19  2  0  0  0
 18 20  1  0  0  0
 20 21  2  0  0  0
 20 22  1  0  0  0
 22 23  1  0  0  0
 22 33  1  0  0  0
 23 24  2  0  0  0
 24 25  1  0  0  0
 25 26  2  0  0  0
 25 30  1  0  0  0
 26 27  1  0  0  0
 27 28  2  0  0  0
 28 29  1  0  0  0
 29 30  2  0  0  0
 31 32  2  0  0  0
M  END
>  <CHROM.0>
-179.44122561,-72.95952223,-165.03811136,62.91076761,168.22651222,65.83862150
-36.55586819,-160.62284576

>  <CHROM.1>
-53.28443975,66.71446832,22.47145372,174.91925705,172.64092049,144.87849531
-172.21922016,-20.50566682,19.81834574,-13.98751200,2.42391732,0.69979114
0.25058961

>  <Name>
F1092-2492

>  <RI>
1.29744e+07

>  <Rbt.Current_Directory>
/home/adria/Escritorio/rDock_CMTR_LC/2pxcA_model/inputs_sah

>  <Rbt.Executable>
rbdock ($Id: //depot/dev/client3/rdock/2013.1/src/exe/rbdock.cxx#4 $)

>  <Rbt.Library>
libRbt.so (2013.1, Build901 2013/11/27)

>  <Rbt.Parameter_File>
/home/adria/Escritorio/rDock_2013.1_src/data/scripts/dock.prm

>  <Rbt.Receptor>
sah_rdock.prm

>  <SCORE>
-271.092

>  <SCORE.INTER>
-13.0493

>  <SCORE.INTER.CONST>
1

>  <SCORE.INTER.POLAR>
-0.835075

>  <SCORE.INTER.REPUL>
0.00152112

>  <SCORE.INTER.ROT>
7

>  <SCORE.INTER.VDW>
-22.6176

>  <SCORE.INTER.norm>
-0.420944

>  <SCORE.INTRA>
-255.971

>  <SCORE.INTRA.DIHEDRAL>
-4.87401

>  <SCORE.INTRA.DIHEDRAL.0>
15.1799

>  <SCORE.INTRA.POLAR>
0

>  <SCORE.INTRA.POLAR.0>
0

>  <SCORE.INTRA.REPUL>
0

>  <SCORE.INTRA.REPUL.0>
0

>  <SCORE.INTRA.VDW>
-253.534

>  <SCORE.INTRA.VDW.0>
251.097

>  <SCORE.INTRA.norm>
-8.25714

>  <SCORE.RESTR>
0.0129566

>  <SCORE.RESTR.CAVITY>
0.0129566

>  <SCORE.RESTR.norm>
0.000417954

>  <SCORE.SYSTEM>
-2.08433

>  <SCORE.SYSTEM.CONST>
0

>  <SCORE.SYSTEM.DIHEDRAL>
3.83462

>  <SCORE.SYSTEM.POLAR>
-3.88143

>  <SCORE.SYSTEM.REPUL>
0.0384632

>  <SCORE.SYSTEM.VDW>
9.00289

>  <SCORE.SYSTEM.norm>
-0.0672364

>  <SCORE.heavy>
31

>  <SCORE.norm>
-8.74491

$$$$
F1092-2492
  rDOCK(R)          3D
libRbt.so/2013.1/901 2013/11/27
 33 36  0  0  0  0  0  0  0  0999 V2000
  -18.4928   11.3097  -17.9966 C   0  0  0  0  0  0
  -17.7277   12.5718  -17.7616 C   0  0  0  0  0  0
  -16.4594   12.7227  -18.3296 C   0  0  0  0  0  0
  -15.7954   13.9362  -18.2136 C   0  0  0  0  0  0
  -16.3968   15.0091  -17.5344 C   0  0  0  0  0  0
  -15.6117   16.2654  -17.2903 C   0  0  0  0  0  0
  -15.8595   17.4229  -18.0579 O   0  0  0  0  0  0
  -15.5326   18.6027  -17.4121 C   0  0  0  0  0  0
  -16.2292   19.3663  -16.4699 C   0  0  0  0  0  0
  -15.6197   20.7109  -16.3506 C   0  0  0  0  0  0
  -14.3880   21.1817  -16.7497 C   0  0  0  0  0  0
  -13.6915   20.3429  -17.5374 C   0  0  0  0  0  0
  -14.2785   19.1116  -17.8990 C   0  0  0  0  0  0
  -17.4544   18.8614  -15.4132 C   0  0  0  0  0  0
  -18.3210   17.2845  -15.5635 N   0  0  0  0  0  0
  -19.4853   17.0667  -14.1050 N   0  0  0  0  0  0
  -20.1342   16.2775  -14.0237 H   0  0  0  0  0  0
  -19.5346   18.5081  -13.0133 C   0  0  0  0  0  0
  -18.3101   19.5798  -13.5850 C   0  0  0  0  0  0
  -20.7844   19.0875  -12.5519 C   0  0  0  0  0  0
  -21.8492   18.5063  -12.7251 O   0  0  0  0  0  0
  -20.7953   20.3523  -11.9265 N   0  0  0  0  0  0
  -20.0389   21.5099  -11.7783 N   0  0  0  0  0  0
  -20.3276   22.7497  -11.5175 C   0  0  0  0  0  0
  -21.6164   23.3879  -11.3983 C   0  0  0  0  0  0
  -21.5115   24.8533  -12.0806 C   0  0  0  0  0  0
  -22.5618   25.5602  -13.2890 N   0  0  0  0  0  0
  -23.9800   24.8913  -13.8261 C   0  0  0  0  0  0
  -24.2700   23.3135  -13.3445 C   0  0  0  0  0  0
  -22.9258   22.5247  -11.8848 C   0  0  0  0  0  0
  -17.6134   14.8214  -16.8810 C   0  0  0  0  0  0
  -18.2794   13.6086  -16.9988 C   0  0  0  0  0  0
  -21.7050   20.5043  -11.5070 H   0  0  0  0  0  0
  1  2  1  0  0  0
  2  3  2  0  0  0
  2 32  1  0  0  0
  3  4  1  0  0  0
  4  5  2  0  0  0
  5  6  1  0  0  0
  5 31  1  0  0  0
  6  7  1  0  0  0
  7  8  1  0  0  0
  8  9  2  0  0  0
  8 13  1  0  0  0
  9 10  1  0  0  0
  9 14  1  0  0  0
 10 11  2  0  0  0
 11 12  1  0  0  0
 12 13  2  0  0  0
 14 15  2  0  0  0
 14 19  1  0  0  0
 15 16  1  0  0  0
 16 17  1  0  0  0
 16 18  1  0  0  0
 18 19  2  0  0  0
 18 20  1  0  0  0
 20 21  2  0  0  0
 20 22  1  0  0  0
 22 23  1  0  0  0
 22 33  1  0  0  0
 23 24  2  0  0  0
 24 25  1  0  0  0
 25 26  2  0  0  0
 25 30  1  0  0  0
 26 27  1  0  0  0
 27 28  2  0  0  0
 28 29  1  0  0  0
 29 30  2  0  0  0
 31 32  2  0  0  0
M  END
>  <CHROM.0>
-174.65683117,65.88433292,-45.39395358,67.38021817,-29.09798860,-63.23247208
-36.89969651,-164.48875245

>  <CHROM.1>
104.58422534,153.83228208,-81.73077201,-13.32019372,10.79919359,154.18057119
-140.79133058,-18.60838146,18.84417877,-15.13310707,0.95841196,-0.52542632
-2.91308986

>  <Name>
F1092-2492

>  <RI>
1.29744e+07

>  <Rbt.Current_Directory>
/home/adria/Escritorio/rDock_CMTR_LC/2pxcA_model/inputs_sah

>  <Rbt.Executable>
rbdock ($Id: //depot/dev/client3/rdock/2013.1/src/exe/rbdock.cxx#4 $)

>  <Rbt.Library>
libRbt.so (2013.1, Build901 2013/11/27)

>  <Rbt.Parameter_File>
/home/adria/Escritorio/rDock_2013.1_src/data/scripts/dock.prm

>  <Rbt.Receptor>
sah_rdock.prm

>  <SCORE>
-275.235

>  <SCORE.INTER>
-15.2614

>  <SCORE.INTER.CONST>
1

>  <SCORE.INTER.POLAR>
-0.867905

>  <SCORE.INTER.REPUL>
0.666733

>  <SCORE.INTER.ROT>
7

>  <SCORE.INTER.VDW>
-28.0442

>  <SCORE.INTER.norm>
-0.492303

>  <SCORE.INTRA>
-253.447

>  <SCORE.INTRA.DIHEDRAL>
-0.744249

>  <SCORE.INTRA.DIHEDRAL.0>
15.1799

>  <SCORE.INTRA.POLAR>
0

>  <SCORE.INTRA.POLAR.0>
0

>  <SCORE.INTRA.REPUL>
0

>  <SCORE.INTRA.REPUL.0>
0

>  <SCORE.INTRA.VDW>
-253.075

>  <SCORE.INTRA.VDW.0>
251.097

>  <SCORE.INTRA.norm>
-8.1757

>  <SCORE.RESTR>
0.0984642

>  <SCORE.RESTR.CAVITY>
0.0984642

>  <SCORE.RESTR.norm>
0.00317626

>  <SCORE.SYSTEM>
-6.62501

>  <SCORE.SYSTEM.CONST>
0

>  <SCORE.SYSTEM.DIHEDRAL>
6.37875

>  <SCORE.SYSTEM.POLAR>
-3.6825

>  <SCORE.SYSTEM.VDW>
2.70613

>  <SCORE.SYSTEM.norm>
-0.21371

>  <SCORE.heavy>
31

>  <SCORE.norm>
-8.87854

$$$$
F1092-2492
  rDOCK(R)          3D
libRbt.so/2013.1/901 2013/11/27
 33 36  0  0  0  0  0  0  0  0999 V2000
  -19.0740   19.4058  -17.0080 C   0  0  0  0  0  0
  -20.4224   19.2220  -16.3906 C   0  0  0  0  0  0
  -20.5813   19.4166  -15.0155 C   0  0  0  0  0  0
  -21.8510   19.3634  -14.4570 C   0  0  0  0  0  0
  -22.9713   19.1215  -15.2696 C   0  0  0  0  0  0
  -24.3177   18.9222  -14.6357 C   0  0  0  0  0  0
  -25.4956   19.0845  -15.3950 O   0  0  0  0  0  0
  -25.6519   20.3557  -15.9198 C   0  0  0  0  0  0
  -25.8839   21.5897  -15.3039 C   0  0  0  0  0  0
  -26.3236   22.5868  -16.3070 C   0  0  0  0  0  0
  -26.2401   22.5803  -17.6821 C   0  0  0  0  0  0
  -25.8671   21.4048  -18.2191 C   0  0  0  0  0  0
  -25.6344   20.3118  -17.3574 C   0  0  0  0  0  0
  -25.5382   22.0442  -13.7081 C   0  0  0  0  0  0
  -25.4130   23.7598  -13.1591 N   0  0  0  0  0  0
  -25.1685   23.8065  -11.2967 N   0  0  0  0  0  0
  -24.9969   24.6745  -10.7794 H   0  0  0  0  0  0
  -25.0004   22.1630  -10.5603 C   0  0  0  0  0  0
  -25.3185   21.0386  -11.8290 C   0  0  0  0  0  0
  -23.9440   21.8421   -9.6160 C   0  0  0  0  0  0
  -23.7340   20.6836   -9.2765 O   0  0  0  0  0  0
  -23.1633   22.8691   -9.0444 N   0  0  0  0  0  0
  -23.1579   24.2388   -8.8033 N   0  0  0  0  0  0
  -22.6812   25.2657   -9.4408 C   0  0  0  0  0  0
  -21.8560   25.3114  -10.6238 C   0  0  0  0  0  0
  -20.7130   24.1728  -10.4780 C   0  0  0  0  0  0
  -20.2776   22.9257  -11.6262 N   0  0  0  0  0  0
  -20.8659   22.8070  -13.1713 C   0  0  0  0  0  0
  -22.1504   23.8162  -13.5415 C   0  0  0  0  0  0
  -22.6265   25.2924  -12.0738 C   0  0  0  0  0  0
  -22.7970   18.8245  -16.6201 C   0  0  0  0  0  0
  -21.5275   18.8800  -17.1800 C   0  0  0  0  0  0
  -22.3685   22.4544   -8.5721 H   0  0  0  0  0  0
  1  2  1  0  0  0
  2  3  2  0  0  0
  2 32  1  0  0  0
  3  4  1  0  0  0
  4  5  2  0  0  0
  5  6  1  0  0  0
  5 31  1  0  0  0
  6  7  1  0  0  0
  7  8  1  0  0  0
  8  9  2  0  0  0
  8 13  1  0  0  0
  9 10  1  0  0  0
  9 14  1  0  0  0
 10 11  2  0  0  0
 11 12  1  0  0  0
 12 13  2  0  0  0
 14 15  2  0  0  0
 14 19  1  0  0  0
 15 16  1  0  0  0
 16 17  1  0  0  0
 16 18  1  0  0  0
 18 19  2  0  0  0
 18 20  1  0  0  0
 20 21  2  0  0  0
 20 22  1  0  0  0
 22 23  1  0  0  0
 22 33  1  0  0  0
 23 24  2  0  0  0
 24 25  1  0  0  0
 25 26  2  0  0  0
 25 30  1  0  0  0
 26 27  1  0  0  0
 27 28  2  0  0  0
 28 29  1  0  0  0
 29 30  2  0  0  0
 31 32  2  0  0  0
M  END
>  <CHROM.0>
-170.26578671,62.03997020,74.08070550,65.67592648,32.90928258,60.93535268
-157.78030655,-162.94799062

>  <CHROM.1>
160.57926920,-60.76619486,-67.30817279,160.82021157,-169.59317003,-94.04313687
-42.97269233,-23.41731197,21.70426207,-13.53266247,-1.66401510,-0.24366511
1.01746254

>  <Name>
F1092-2492

>  <RI>
1.29744e+07

>  <Rbt.Current_Directory>
/home/adria/Escritorio/rDock_CMTR_LC/2pxcA_model/inputs_sah

>  <Rbt.Executable>
rbdock ($Id: //depot/dev/client3/rdock/2013.1/src/exe/rbdock.cxx#4 $)

>  <Rbt.Library>
libRbt.so (2013.1, Build901 2013/11/27)

>  <Rbt.Parameter_File>
/home/adria/Escritorio/rDock_2013.1_src/data/scripts/dock.prm

>  <Rbt.Receptor>
sah_rdock.prm

>  <SCORE>
-258.966

>  <SCORE.INTER>
-12.3691

>  <SCORE.INTER.CONST>
1

>  <SCORE.INTER.POLAR>
-1.04714

>  <SCORE.INTER.REPUL>
0

>  <SCORE.INTER.ROT>
7

>  <SCORE.INTER.VDW>
-21.2088

>  <SCORE.INTER.norm>
-0.399004

>  <SCORE.INTRA>
-251.637

>  <SCORE.INTRA.DIHEDRAL>
8.78528

>  <SCORE.INTRA.DIHEDRAL.0>
15.1799

>  <SCORE.INTRA.POLAR>
0

>  <SCORE.INTRA.POLAR.0>
0

>  <SCORE.INTRA.REPUL>
0

>  <SCORE.INTRA.REPUL.0>
0

>  <SCORE.INTRA.VDW>
-256.029

>  <SCORE.INTRA.VDW.0>
251.097

>  <SCORE.INTRA.norm>
-8.11731

>  <SCORE.RESTR>
0.0119468

>  <SCORE.RESTR.CAVITY>
0.0119468

>  <SCORE.RESTR.norm>
0.000385382

>  <SCORE.SYSTEM>
5.02795

>  <SCORE.SYSTEM.CONST>
0

>  <SCORE.SYSTEM.DIHEDRAL>
5.65894

>  <SCORE.SYSTEM.POLAR>
-3.47398

>  <SCORE.SYSTEM.VDW>
14.01

>  <SCORE.SYSTEM.norm>
0.162192

>  <SCORE.heavy>
31

>  <SCORE.norm>
-8.35374

$$$$
F1092-2492
  rDOCK(R)          3D
libRbt.so/2013.1/901 2013/11/27
 33 36  0  0  0  0  0  0  0  0999 V2000
  -26.5529   23.1744   -8.3162 C   0  0  0  0  0  0
  -25.8687   23.3259   -9.6362 C   0  0  0  0  0  0
  -26.4973   24.0433  -10.6581 C   0  0  0  0  0  0
  -25.8177   24.2877  -11.8434 C   0  0  0  0  0  0
  -24.5030   23.8223  -12.0135 C   0  0  0  0  0  0
  -23.8328   23.9659  -13.3495 C   0  0  0  0  0  0
  -22.7811   24.8897  -13.5252 O   0  0  0  0  0  0
  -21.7066   24.6817  -12.6778 C   0  0  0  0  0  0
  -20.8190   23.6080  -12.5545 C   0  0  0  0  0  0
  -20.0720   23.7066  -11.2793 C   0  0  0  0  0  0
  -19.8951   24.7662  -10.4170 C   0  0  0  0  0  0
  -20.6708   25.8355  -10.6705 C   0  0  0  0  0  0
  -21.5883   25.7662  -11.7405 C   0  0  0  0  0  0
  -20.4197   22.4414  -13.7174 C   0  0  0  0  0  0
  -21.4362   20.9922  -14.0737 N   0  0  0  0  0  0
  -20.7034   20.0536  -15.5270 N   0  0  0  0  0  0
  -21.0744   19.1558  -15.8540 H   0  0  0  0  0  0
  -19.1384   20.7507  -16.1073 C   0  0  0  0  0  0
  -18.9145   22.2160  -15.2254 C   0  0  0  0  0  0
  -17.9705   19.9252  -16.3627 C   0  0  0  0  0  0
  -16.8847   20.4328  -16.6176 O   0  0  0  0  0  0
  -18.0776   18.5183  -16.3572 N   0  0  0  0  0  0
  -19.0055   17.4877  -16.4624 N   0  0  0  0  0  0
  -19.7572   16.8592  -15.6090 C   0  0  0  0  0  0
  -19.7950   16.9580  -14.1698 C   0  0  0  0  0  0
  -18.9537   18.2734  -13.7386 C   0  0  0  0  0  0
  -19.4550   19.5800  -12.6876 N   0  0  0  0  0  0
  -20.8527   19.6023  -11.7970 C   0  0  0  0  0  0
  -21.9567   18.3912  -12.1429 C   0  0  0  0  0  0
  -21.2679   16.8509  -13.4517 C   0  0  0  0  0  0
  -23.9198   23.0192  -11.0352 C   0  0  0  0  0  0
  -24.5981   22.7765   -9.8480 C   0  0  0  0  0  0
  -17.1471   18.1172  -16.3605 H   0  0  0  0  0  0
  1  2  1  0  0  0
  2  3  2  0  0  0
  2 32  1  0  0  0
  3  4  1  0  0  0
  4  5  2  0  0  0
  5  6  1  0  0  0
  5 31  1  0  0  0
  6  7  1  0  0  0
  7  8  1  0  0  0
  8  9  2  0  0  0
  8 13  1  0  0  0
  9 10  1  0  0  0
  9 14  1  0  0  0
 10 11  2  0  0  0
 11 12  1  0  0  0
 12 13  2  0  0  0
 14 15  2  0  0  0
 14 19  1  0  0  0
 15 16  1  0  0  0
 16 17  1  0  0  0
 16 18  1  0  0  0
 18 19  2  0  0  0
 18 20  1  0  0  0
 20 21  2  0  0  0
 20 22  1  0  0  0
 22 23  1  0  0  0
 22 33  1  0  0  0
 23 24  2  0  0  0
 24 25  1  0  0  0
 25 26  2  0  0  0
 25 30  1  0  0  0
 26 27  1  0  0  0
 27 28  2  0  0  0
 28 29  1  0  0  0
 29 30  2  0  0  0
 31 32  2  0  0  0
M  END
>  <CHROM.0>
-177.86071715,-168.98337403,-44.76438073,64.46936722,-30.70228243,-177.14991921
-157.06914250,-162.98378223

>  <CHROM.1>
109.13861272,58.07855172,63.30497028,-81.08500194,-172.19141946,-87.46841291
13.13783496,-21.38956740,21.62477908,-13.05885795,2.38449287,0.59856638,0.17310851

>  <Name>
F1092-2492

>  <RI>
1.29744e+07

>  <Rbt.Current_Directory>
/home/adria/Escritorio/rDock_CMTR_LC/2pxcA_model/inputs_sah

>  <Rbt.Executable>
rbdock ($Id: //depot/dev/client3/rdock/2013.1/src/exe/rbdock.cxx#4 $)

>  <Rbt.Library>
libRbt.so (2013.1, Build901 2013/11/27)

>  <Rbt.Parameter_File>
/home/adria/Escritorio/rDock_2013.1_src/data/scripts/dock.prm

>  <Rbt.Receptor>
sah_rdock.prm

>  <SCORE>
-273.379

>  <SCORE.INTER>
-18.2382

>  <SCORE.INTER.CONST>
1

>  <SCORE.INTER.POLAR>
-0.941952

>  <SCORE.INTER.REPUL>
0.363181

>  <SCORE.INTER.ROT>
7

>  <SCORE.INTER.VDW>
-29.2515

>  <SCORE.INTER.norm>
-0.588329

>  <SCORE.INTRA>
-249.023

>  <SCORE.INTRA.DIHEDRAL>
12.7537

>  <SCORE.INTRA.DIHEDRAL.0>
15.1799

>  <SCORE.INTRA.POLAR>
0

>  <SCORE.INTRA.POLAR.0>
0

>  <SCORE.INTRA.REPUL>
0

>  <SCORE.INTRA.REPUL.0>
0

>  <SCORE.INTRA.VDW>
-255.4

>  <SCORE.INTRA.VDW.0>
251.097

>  <SCORE.INTRA.norm>
-8.03301

>  <SCORE.RESTR>
0

>  <SCORE.RESTR.CAVITY>
0

>  <SCORE.RESTR.norm>
0

>  <SCORE.SYSTEM>
-6.11742

>  <SCORE.SYSTEM.CONST>
0

>  <SCORE.SYSTEM.DIHEDRAL>
6.29396

>  <SCORE.SYSTEM.POLAR>
-3.71079

>  <SCORE.SYSTEM.VDW>
3.35228

>  <SCORE.SYSTEM.norm>
-0.197336

>  <SCORE.heavy>
31

>  <SCORE.norm>
-8.81868

$$$$
F1092-2492
  rDOCK(R)          3D
libRbt.so/2013.1/901 2013/11/27
 33 36  0  0  0  0  0  0  0  0999 V2000
  -16.6197   12.3987  -13.6962 C   0  0  0  0  0  0
  -17.0201   13.5068  -14.6154 C   0  0  0  0  0  0
  -16.1167   13.9590  -15.5816 C   0  0  0  0  0  0
  -16.5238   14.9042  -16.5130 C   0  0  0  0  0  0
  -17.8383   15.3996  -16.4893 C   0  0  0  0  0  0
  -18.2233   16.5244  -17.4064 C   0  0  0  0  0  0
  -17.2446   17.1783  -18.1842 O   0  0  0  0  0  0
  -16.5178   18.1272  -17.4862 C   0  0  0  0  0  0
  -16.9157   19.1191  -16.5841 C   0  0  0  0  0  0
  -15.8212   20.0969  -16.3843 C   0  0  0  0  0  0
  -14.4765   20.0172  -16.6729 C   0  0  0  0  0  0
  -14.1222   18.9583  -17.4228 C   0  0  0  0  0  0
  -15.1298   18.0721  -17.8595 C   0  0  0  0  0  0
  -18.3227   19.1720  -15.6405 C   0  0  0  0  0  0
  -19.7769   20.1553  -16.0633 N   0  0  0  0  0  0
  -21.1520   19.8032  -14.8323 N   0  0  0  0  0  0
  -22.0442   20.3077  -14.8351 H   0  0  0  0  0  0
  -20.6447   18.6922  -13.4982 C   0  0  0  0  0  0
  -19.0601   18.1486  -13.9087 C   0  0  0  0  0  0
  -20.9245   18.9805  -12.1020 C   0  0  0  0  0  0
  -20.8431   18.1038  -11.2499 O   0  0  0  0  0  0
  -21.3322   20.2731  -11.7093 N   0  0  0  0  0  0
  -21.8747   21.4520  -12.2092 N   0  0  0  0  0  0
  -22.4174   22.4987  -11.6632 C   0  0  0  0  0  0
  -22.7538   22.7446  -10.2816 C   0  0  0  0  0  0
  -23.3900   24.2309  -10.1808 C   0  0  0  0  0  0
  -24.8965   24.7128   -9.4314 N   0  0  0  0  0  0
  -25.8678   23.7225   -8.5241 C   0  0  0  0  0  0
  -25.4807   22.0933   -8.5567 C   0  0  0  0  0  0
  -23.6368   21.5942   -9.5112 C   0  0  0  0  0  0
  -18.7020   15.0248  -15.4617 C   0  0  0  0  0  0
  -18.2963   14.0773  -14.5312 C   0  0  0  0  0  0
  -21.2938   20.3376  -10.6989 H   0  0  0  0  0  0
  1  2  1  0  0  0
  2  3  2  0  0  0
  2 32  1  0  0  0
  3  4  1  0  0  0
  4  5  2  0  0  0
  5  6  1  0  0  0
  5 31  1  0  0  0
  6  7  1  0  0  0
  7  8  1  0  0  0
  8  9  2  0  0  0
  8 13  1  0  0  0
  9 10  1  0  0  0
  9 14  1  0  0  0
 10 11  2  0  0  0
 11 12  1  0  0  0
 12 13  2  0  0  0
 14 15  2  0  0  0
 14 19  1  0  0  0
 15 16  1  0  0  0
 16 17  1  0  0  0
 16 18  1  0  0  0
 18 19  2  0  0  0
 18 20  1  0  0  0
 20 21  2  0  0  0
 20 22  1  0  0  0
 22 23  1  0  0  0
 22 33  1  0  0  0
 23 24  2  0  0  0
 24 25  1  0  0  0
 25 26  2  0  0  0
 25 30  1  0  0  0
 26 27  1  0  0  0
 27 28  2  0  0  0
 28 29  1  0  0  0
 29 30  2  0  0  0
 31 32  2  0  0  0
M  END
>  <CHROM.0>
158.06895537,67.16949029,-161.62071438,150.87948010,168.39197436,62.05922677
80.42721066,-53.46390001

>  <CHROM.1>
-6.78103797,-80.24863917,-44.17172884,-100.70324218,163.84602711,165.28329088
179.25726110,-19.44593142,18.82469250,-13.99382436,0.45234901,-0.79741525
2.95151091

>  <Name>
F1092-2492

>  <RI>
1.29744e+07

>  <Rbt.Current_Directory>
/home/adria/Escritorio/rDock_CMTR_LC/2pxcA_model/inputs_sah

>  <Rbt.Executable>
rbdock ($Id: //depot/dev/client3/rdock/2013.1/src/exe/rbdock.cxx#4 $)

>  <Rbt.Library>
libRbt.so (2013.1, Build901 2013/11/27)

>  <Rbt.Parameter_File>
/home/adria/Escritorio/rDock_2013.1_src/data/scripts/dock.prm

>  <Rbt.Receptor>
sah_rdock.prm

>  <SCORE>
-261.527

>  <SCORE.INTER>
-17.7397

>  <SCORE.INTER.CONST>
1

>  <SCORE.INTER.POLAR>
-1.21721

>  <SCORE.INTER.REPUL>
0.0590184

>  <SCORE.INTER.ROT>
7

>  <SCORE.INTER.VDW>
-26.2963

>  <SCORE.INTER.norm>
-0.572249

>  <SCORE.INTRA>
-248.812

>  <SCORE.INTRA.DIHEDRAL>
10.582

>  <SCORE.INTRA.DIHEDRAL.0>
15.1799

>  <SCORE.INTRA.POLAR>
0

>  <SCORE.INTRA.POLAR.0>
0

>  <SCORE.INTRA.REPUL>
0

>  <SCORE.INTRA.REPUL.0>
0

>  <SCORE.INTRA.VDW>
-254.103

>  <SCORE.INTRA.VDW.0>
251.097

>  <SCORE.INTRA.norm>
-8.02618

>  <SCORE.RESTR>
0

>  <SCORE.RESTR.CAVITY>
0

>  <SCORE.RESTR.norm>
0

>  <SCORE.SYSTEM>
5.02437

>  <SCORE.SYSTEM.CONST>
0

>  <SCORE.SYSTEM.DIHEDRAL>
11.2672

>  <SCORE.SYSTEM.POLAR>
-3.06129

>  <SCORE.SYSTEM.REPUL>
0.00289873

>  <SCORE.SYSTEM.VDW>
9.78468

>  <SCORE.SYSTEM.norm>
0.162076

>  <SCORE.heavy>
31

>  <SCORE.norm>
-8.43635

$$$$
