F2359-0040
  rDOCK(R)          3D
libRbt.so/2013.1/901 2013/11/27
 29 32  0  0  0  0  0  0  0  0999 V2000
  -24.4137   26.3404  -12.7083 F   0  0  0  0  0  0
  -23.5055   25.3721  -12.8629 C   0  0  0  0  0  0
  -21.8342   25.6834  -12.4026 C   0  0  0  0  0  0
  -20.6305   24.3891  -12.1351 C   0  0  0  0  0  0
  -21.1696   22.6345  -12.4006 C   0  0  0  0  0  0
  -19.9634   21.9348  -12.6017 N   0  0  0  0  0  0
  -19.7056   20.6194  -12.8887 C   0  0  0  0  0  0
  -20.4547   19.6081  -12.4301 C   0  0  0  0  0  0
  -21.4998   19.8303  -11.5758 N   0  0  0  0  0  0
  -22.2333   18.7462  -11.3306 C   0  0  0  0  0  0
  -21.8993   17.5317  -11.8951 C   0  0  0  0  0  0
  -20.8297   17.3347  -12.7086 N   0  0  0  0  0  0
  -20.0776   18.3836  -13.0090 C   0  0  0  0  0  0
  -19.0476   18.1924  -13.8577 N   0  0  0  0  0  0
  -18.3476   19.2499  -14.1745 C   0  0  0  0  0  0
  -17.2413   19.2414  -14.9802 N   0  0  0  0  0  0
  -16.7463   18.1264  -15.8076 C   0  0  0  0  0  0
  -17.3965   17.9215  -17.1938 C   0  0  0  0  0  0
  -16.8081   16.7656  -17.9895 C   0  0  0  0  0  0
  -15.0392   16.6399  -18.1850 C   0  0  0  0  0  0
  -14.3099   15.0250  -18.6795 C   0  0  0  0  0  0
  -15.6663   13.5433  -19.1743 C   0  0  0  0  0  0
  -17.4154   13.8709  -19.0082 C   0  0  0  0  0  0
  -17.9354   15.4050  -18.3772 C   0  0  0  0  0  0
  -18.7441   20.3945  -13.7410 N   0  0  0  0  0  0
  -23.1257   22.5498  -12.9882 C   0  0  0  0  0  0
  -24.1576   23.8894  -13.1678 C   0  0  0  0  0  0
  -19.1160   22.4244  -12.2877 H   0  0  0  0  0  0
  -16.6997   20.0845  -14.9264 H   0  0  0  0  0  0
  1  2  1  0  0  0
  2  3  2  0  0  0
  2 27  1  0  0  0
  3  4  1  0  0  0
  4  5  2  0  0  0
  5  6  1  0  0  0
  5 26  1  0  0  0
  6  7  1  0  0  0
  6 28  1  0  0  0
  7  8  2  0  0  0
  7 25  1  0  0  0
  8  9  1  0  0  0
  8 13  1  0  0  0
  9 10  2  0  0  0
 10 11  1  0  0  0
 11 12  2  0  0  0
 12 13  1  0  0  0
 13 14  2  0  0  0
 14 15  1  0  0  0
 15 16  1  0  0  0
 15 25  2  0  0  0
 16 17  1  0  0  0
 16 29  1  0  0  0
 17 18  1  0  0  0
 18 19  1  0  0  0
 19 20  2  0  0  0
 19 24  1  0  0  0
 20 21  1  0  0  0
 21 22  2  0  0  0
 22 23  1  0  0  0
 23 24  2  0  0  0
 26 27  2  0  0  0
M  END
>  <CHROM.0>
-176.26257472,-68.56326412,109.68661283,65.32577990,-32.58693596,64.88558006
-37.34844037,-160.81050199

>  <CHROM.1>
-177.58866076,-33.72658948,10.42901461,82.51970851,178.93664029,-49.95635166
-19.68351979,19.69606858,-14.35534024,-2.49870170,-0.83508358,2.94994380

>  <Name>
F2359-0040

>  <RI>
3.03619e+07

>  <Rbt.Current_Directory>
/home/adria/Escritorio/rDock_CMTR_LC/2pxcA_model/inputs_sah

>  <Rbt.Executable>
rbdock ($Id: //depot/dev/client3/rdock/2013.1/src/exe/rbdock.cxx#4 $)

>  <Rbt.Library>
libRbt.so (2013.1, Build901 2013/11/27)

>  <Rbt.Parameter_File>
/home/adria/Escritorio/rDock_2013.1_src/data/scripts/dock.prm

>  <Rbt.Receptor>
sah_rdock.prm

>  <SCORE>
-281.676

>  <SCORE.INTER>
-15.8209

>  <SCORE.INTER.CONST>
1

>  <SCORE.INTER.POLAR>
-1.5489

>  <SCORE.INTER.REPUL>
0

>  <SCORE.INTER.ROT>
6

>  <SCORE.INTER.VDW>
-21.9547

>  <SCORE.INTER.norm>
-0.58596

>  <SCORE.INTRA>
-259.037

>  <SCORE.INTRA.DIHEDRAL>
-0.620867

>  <SCORE.INTRA.DIHEDRAL.0>
11.6174

>  <SCORE.INTRA.POLAR>
0.0348358

>  <SCORE.INTRA.POLAR.0>
-0.0348358

>  <SCORE.INTRA.REPUL>
0

>  <SCORE.INTRA.REPUL.0>
0

>  <SCORE.INTRA.VDW>
-258.845

>  <SCORE.INTRA.VDW.0>
257.335

>  <SCORE.INTRA.norm>
-9.59397

>  <SCORE.RESTR>
0

>  <SCORE.RESTR.CAVITY>
0

>  <SCORE.RESTR.norm>
0

>  <SCORE.SYSTEM>
-6.81748

>  <SCORE.SYSTEM.CONST>
0

>  <SCORE.SYSTEM.DIHEDRAL>
8.72329

>  <SCORE.SYSTEM.POLAR>
-4.4738

>  <SCORE.SYSTEM.REPUL>
0.0296697

>  <SCORE.SYSTEM.VDW>
3.88344

>  <SCORE.SYSTEM.norm>
-0.252499

>  <SCORE.heavy>
27

>  <SCORE.norm>
-10.4324

$$$$
F2359-0040
  rDOCK(R)          3D
libRbt.so/2013.1/901 2013/11/27
 29 32  0  0  0  0  0  0  0  0999 V2000
  -15.0991   12.2195  -20.4497 F   0  0  0  0  0  0
  -15.5674   13.3212  -19.8552 C   0  0  0  0  0  0
  -17.3058   13.5066  -19.6415 C   0  0  0  0  0  0
  -18.0375   14.6725  -18.5009 C   0  0  0  0  0  0
  -16.8985   15.7674  -17.5296 C   0  0  0  0  0  0
  -17.7163   16.8451  -17.1360 N   0  0  0  0  0  0
  -17.4168   18.0881  -16.6419 C   0  0  0  0  0  0
  -16.2734   18.7301  -16.9152 C   0  0  0  0  0  0
  -15.2903   18.1410  -17.6620 N   0  0  0  0  0  0
  -14.2849   18.9588  -17.9682 C   0  0  0  0  0  0
  -14.2808   20.2635  -17.5176 C   0  0  0  0  0  0
  -15.2541   20.8081  -16.7425 N   0  0  0  0  0  0
  -16.2931   20.0485  -16.4271 C   0  0  0  0  0  0
  -17.2806   20.6096  -15.7005 N   0  0  0  0  0  0
  -18.3156   19.8548  -15.4401 C   0  0  0  0  0  0
  -19.3876   20.2350  -14.6789 N   0  0  0  0  0  0
  -19.5601   21.5032  -13.9478 C   0  0  0  0  0  0
  -20.9919   21.8896  -13.5149 C   0  0  0  0  0  0
  -21.0921   23.2576  -12.8561 C   0  0  0  0  0  0
  -22.4482   24.3395  -13.2726 C   0  0  0  0  0  0
  -22.8589   25.7299  -12.1402 C   0  0  0  0  0  0
  -21.5415   26.0282  -10.5731 C   0  0  0  0  0  0
  -20.1743   24.8978  -10.3556 C   0  0  0  0  0  0
  -20.0175   23.5391  -11.4285 C   0  0  0  0  0  0
  -18.3633   18.6834  -15.9700 N   0  0  0  0  0  0
  -14.9450   15.3991  -18.0058 C   0  0  0  0  0  0
  -14.4062   14.2177  -19.1037 C   0  0  0  0  0  0
  -18.7079   16.6134  -16.9959 H   0  0  0  0  0  0
  -20.0843   19.5193  -14.5819 H   0  0  0  0  0  0
  1  2  1  0  0  0
  2  3  2  0  0  0
  2 27  1  0  0  0
  3  4  1  0  0  0
  4  5  2  0  0  0
  5  6  1  0  0  0
  5 26  1  0  0  0
  6  7  1  0  0  0
  6 28  1  0  0  0
  7  8  2  0  0  0
  7 25  1  0  0  0
  8  9  1  0  0  0
  8 13  1  0  0  0
  9 10  2  0  0  0
 10 11  1  0  0  0
 11 12  2  0  0  0
 12 13  1  0  0  0
 13 14  2  0  0  0
 14 15  1  0  0  0
 15 16  1  0  0  0
 15 25  2  0  0  0
 16 17  1  0  0  0
 16 29  1  0  0  0
 17 18  1  0  0  0
 18 19  1  0  0  0
 19 20  2  0  0  0
 19 24  1  0  0  0
 20 21  1  0  0  0
 21 22  2  0  0  0
 22 23  1  0  0  0
 23 24  2  0  0  0
 26 27  2  0  0  0
M  END
>  <CHROM.0>
-59.39934433,-70.45768763,-6.83097897,65.50219276,168.48932141,-177.11053533
-156.27098863,-160.35566426

>  <CHROM.1>
-164.76018973,27.74877581,-3.92891451,162.07143363,-175.82672104,137.93749042
-17.79410507,19.22103842,-15.98172839,1.11189092,-0.32586340,-2.67074197

>  <Name>
F2359-0040

>  <RI>
3.03619e+07

>  <Rbt.Current_Directory>
/home/adria/Escritorio/rDock_CMTR_LC/2pxcA_model/inputs_sah

>  <Rbt.Executable>
rbdock ($Id: //depot/dev/client3/rdock/2013.1/src/exe/rbdock.cxx#4 $)

>  <Rbt.Library>
libRbt.so (2013.1, Build901 2013/11/27)

>  <Rbt.Parameter_File>
/home/adria/Escritorio/rDock_2013.1_src/data/scripts/dock.prm

>  <Rbt.Receptor>
sah_rdock.prm

>  <SCORE>
-281.408

>  <SCORE.INTER>
-17.8716

>  <SCORE.INTER.CONST>
1

>  <SCORE.INTER.POLAR>
-0.0345015

>  <SCORE.INTER.REPUL>
0

>  <SCORE.INTER.ROT>
6

>  <SCORE.INTER.VDW>
-29.1543

>  <SCORE.INTER.norm>
-0.661911

>  <SCORE.INTRA>
-260.961

>  <SCORE.INTRA.DIHEDRAL>
-5.37719

>  <SCORE.INTRA.DIHEDRAL.0>
11.6174

>  <SCORE.INTRA.POLAR>
0.0348358

>  <SCORE.INTRA.POLAR.0>
-0.0348358

>  <SCORE.INTRA.REPUL>
0

>  <SCORE.INTRA.REPUL.0>
0

>  <SCORE.INTRA.VDW>
-258.391

>  <SCORE.INTRA.VDW.0>
257.335

>  <SCORE.INTRA.norm>
-9.66523

>  <SCORE.RESTR>
0

>  <SCORE.RESTR.CAVITY>
0

>  <SCORE.RESTR.norm>
0

>  <SCORE.SYSTEM>
-2.57532

>  <SCORE.SYSTEM.CONST>
0

>  <SCORE.SYSTEM.DIHEDRAL>
6.57981

>  <SCORE.SYSTEM.POLAR>
-4.56064

>  <SCORE.SYSTEM.REPUL>
0.0336831

>  <SCORE.SYSTEM.VDW>
9.47255

>  <SCORE.SYSTEM.norm>
-0.0953822

>  <SCORE.heavy>
27

>  <SCORE.norm>
-10.4225

$$$$
F2359-0040
  rDOCK(R)          3D
libRbt.so/2013.1/901 2013/11/27
 29 32  0  0  0  0  0  0  0  0999 V2000
  -21.9521   26.8809   -9.6732 F   0  0  0  0  0  0
  -21.5098   26.0563  -10.6277 C   0  0  0  0  0  0
  -20.2765   24.8646  -10.2268 C   0  0  0  0  0  0
  -19.9183   23.4396  -11.2449 C   0  0  0  0  0  0
  -20.8711   23.2393  -12.8234 C   0  0  0  0  0  0
  -20.0695   22.3773  -13.5976 N   0  0  0  0  0  0
  -19.6777   21.0773  -13.4096 C   0  0  0  0  0  0
  -20.2897   20.2424  -12.5594 C   0  0  0  0  0  0
  -21.3177   20.6683  -11.7638 N   0  0  0  0  0  0
  -21.9146   19.6891  -11.0869 C   0  0  0  0  0  0
  -21.4697   18.3873  -11.1990 C   0  0  0  0  0  0
  -20.4185   18.0019  -11.9678 N   0  0  0  0  0  0
  -19.8013   18.9299  -12.6847 C   0  0  0  0  0  0
  -18.7914   18.5334  -13.4851 N   0  0  0  0  0  0
  -18.2277   19.4587  -14.2163 C   0  0  0  0  0  0
  -17.1608   19.2540  -15.0488 N   0  0  0  0  0  0
  -16.6218   20.1846  -16.0569 C   0  0  0  0  0  0
  -15.3566   19.7482  -16.8283 C   0  0  0  0  0  0
  -15.4731   18.3816  -17.4873 C   0  0  0  0  0  0
  -14.0810   17.2663  -17.4565 C   0  0  0  0  0  0
  -14.3654   15.4772  -17.7770 C   0  0  0  0  0  0
  -16.2826   14.9655  -18.3620 C   0  0  0  0  0  0
  -17.5415   16.2323  -18.4296 C   0  0  0  0  0  0
  -17.1417   17.8529  -17.9439 C   0  0  0  0  0  0
  -18.7322   20.6421  -14.1957 N   0  0  0  0  0  0
  -22.1883   24.7806  -13.0849 C   0  0  0  0  0  0
  -22.4341   26.0603  -11.9925 C   0  0  0  0  0  0
  -19.5088   22.8377  -14.3257 H   0  0  0  0  0  0
  -16.7680   18.3333  -14.9780 H   0  0  0  0  0  0
  1  2  1  0  0  0
  2  3  2  0  0  0
  2 27  1  0  0  0
  3  4  1  0  0  0
  4  5  2  0  0  0
  5  6  1  0  0  0
  5 26  1  0  0  0
  6  7  1  0  0  0
  6 28  1  0  0  0
  7  8  2  0  0  0
  7 25  1  0  0  0
  8  9  1  0  0  0
  8 13  1  0  0  0
  9 10  2  0  0  0
 10 11  1  0  0  0
 11 12  2  0  0  0
 12 13  1  0  0  0
 13 14  2  0  0  0
 14 15  1  0  0  0
 15 16  1  0  0  0
 15 25  2  0  0  0
 16 17  1  0  0  0
 16 29  1  0  0  0
 17 18  1  0  0  0
 18 19  1  0  0  0
 19 20  2  0  0  0
 19 24  1  0  0  0
 20 21  1  0  0  0
 21 22  2  0  0  0
 22 23  1  0  0  0
 23 24  2  0  0  0
 26 27  2  0  0  0
M  END
>  <CHROM.0>
171.08254258,-169.89753557,72.81711208,65.82444909,-30.87775557,-53.46964532
83.37424522,-166.17716459

>  <CHROM.1>
63.50516282,17.89767858,169.07526195,176.95376242,53.00193379,-139.72812890
-19.05813167,20.55363091,-13.84637568,-2.36987205,-0.80681591,-3.08229314

>  <Name>
F2359-0040

>  <RI>
3.03619e+07

>  <Rbt.Current_Directory>
/home/adria/Escritorio/rDock_CMTR_LC/2pxcA_model/inputs_sah

>  <Rbt.Executable>
rbdock ($Id: //depot/dev/client3/rdock/2013.1/src/exe/rbdock.cxx#4 $)

>  <Rbt.Library>
libRbt.so (2013.1, Build901 2013/11/27)

>  <Rbt.Parameter_File>
/home/adria/Escritorio/rDock_2013.1_src/data/scripts/dock.prm

>  <Rbt.Receptor>
sah_rdock.prm

>  <SCORE>
-283.709

>  <SCORE.INTER>
-19.602

>  <SCORE.INTER.CONST>
1

>  <SCORE.INTER.POLAR>
-0.471768

>  <SCORE.INTER.REPUL>
0

>  <SCORE.INTER.ROT>
6

>  <SCORE.INTER.VDW>
-29.398

>  <SCORE.INTER.norm>
-0.726001

>  <SCORE.INTRA>
-258.279

>  <SCORE.INTRA.DIHEDRAL>
0.522537

>  <SCORE.INTRA.DIHEDRAL.0>
11.6174

>  <SCORE.INTRA.POLAR>
0.0348358

>  <SCORE.INTRA.POLAR.0>
-0.0348358

>  <SCORE.INTRA.REPUL>
0

>  <SCORE.INTRA.REPUL.0>
0

>  <SCORE.INTRA.VDW>
-258.659

>  <SCORE.INTRA.VDW.0>
257.335

>  <SCORE.INTRA.norm>
-9.5659

>  <SCORE.RESTR>
0

>  <SCORE.RESTR.CAVITY>
0

>  <SCORE.RESTR.norm>
0

>  <SCORE.SYSTEM>
-5.82776

>  <SCORE.SYSTEM.CONST>
0

>  <SCORE.SYSTEM.DIHEDRAL>
6.43483

>  <SCORE.SYSTEM.POLAR>
-3.68321

>  <SCORE.SYSTEM.VDW>
3.47776

>  <SCORE.SYSTEM.norm>
-0.215843

>  <SCORE.heavy>
27

>  <SCORE.norm>
-10.5077

$$$$
F2359-0040
  rDOCK(R)          3D
libRbt.so/2013.1/901 2013/11/27
 29 32  0  0  0  0  0  0  0  0999 V2000
  -15.0570   11.8796  -20.4908 F   0  0  0  0  0  0
  -15.4419   12.9141  -19.7370 C   0  0  0  0  0  0
  -17.0112   12.8564  -18.9395 C   0  0  0  0  0  0
  -17.4637   13.9264  -17.5809 C   0  0  0  0  0  0
  -16.2245   15.1867  -17.0191 C   0  0  0  0  0  0
  -16.9995   16.1449  -16.3362 N   0  0  0  0  0  0
  -16.8043   17.4813  -16.1021 C   0  0  0  0  0  0
  -15.8713   18.2076  -16.7315 C   0  0  0  0  0  0
  -14.9971   17.6303  -17.6111 N   0  0  0  0  0  0
  -14.2328   18.5054  -18.2618 C   0  0  0  0  0  0
  -14.3412   19.8574  -18.0051 C   0  0  0  0  0  0
  -15.1924   20.3971  -17.0947 N   0  0  0  0  0  0
  -15.9965   19.5763  -16.4348 C   0  0  0  0  0  0
  -16.8749   20.1222  -15.5697 N   0  0  0  0  0  0
  -17.6881   19.2972  -14.9643 C   0  0  0  0  0  0
  -18.6105   19.6615  -14.0210 N   0  0  0  0  0  0
  -19.3607   18.7737  -13.1144 C   0  0  0  0  0  0
  -20.9019   18.8790  -13.1245 C   0  0  0  0  0  0
  -21.5534   18.3135  -14.3780 C   0  0  0  0  0  0
  -22.8307   17.0772  -14.2266 C   0  0  0  0  0  0
  -23.9527   16.7760  -15.6530 C   0  0  0  0  0  0
  -23.4713   17.7767  -17.3986 C   0  0  0  0  0  0
  -22.0939   18.9156  -17.3997 C   0  0  0  0  0  0
  -21.2286   19.2025  -15.9195 C   0  0  0  0  0  0
  -17.6610   18.0566  -15.3042 N   0  0  0  0  0  0
  -14.5194   15.0893  -18.1424 C   0  0  0  0  0  0
  -14.2296   13.9774  -19.3959 C   0  0  0  0  0  0
  -17.7373   15.7610  -15.7323 H   0  0  0  0  0  0
  -18.8166   20.6436  -14.0202 H   0  0  0  0  0  0
  1  2  1  0  0  0
  2  3  2  0  0  0
  2 27  1  0  0  0
  3  4  1  0  0  0
  4  5  2  0  0  0
  5  6  1  0  0  0
  5 26  1  0  0  0
  6  7  1  0  0  0
  6 28  1  0  0  0
  7  8  2  0  0  0
  7 25  1  0  0  0
  8  9  1  0  0  0
  8 13  1  0  0  0
  9 10  2  0  0  0
 10 11  1  0  0  0
 11 12  2  0  0  0
 12 13  1  0  0  0
 13 14  2  0  0  0
 14 15  1  0  0  0
 15 16  1  0  0  0
 15 25  2  0  0  0
 16 17  1  0  0  0
 16 29  1  0  0  0
 17 18  1  0  0  0
 18 19  1  0  0  0
 19 20  2  0  0  0
 19 24  1  0  0  0
 20 21  1  0  0  0
 21 22  2  0  0  0
 22 23  1  0  0  0
 23 24  2  0  0  0
 26 27  2  0  0  0
M  END
>  <CHROM.0>
-66.17006700,-169.76812688,-9.17317816,-63.46917797,30.74729540,-60.99633606
-156.53732726,-158.87052157

>  <CHROM.1>
-153.78677529,12.76075755,-166.75913760,-125.10361666,71.76889819,125.87122631
-17.76688517,17.22419872,-16.65505511,0.70533002,-0.26361560,-2.65619376

>  <Name>
F2359-0040

>  <RI>
3.03619e+07

>  <Rbt.Current_Directory>
/home/adria/Escritorio/rDock_CMTR_LC/2pxcA_model/inputs_sah

>  <Rbt.Executable>
rbdock ($Id: //depot/dev/client3/rdock/2013.1/src/exe/rbdock.cxx#4 $)

>  <Rbt.Library>
libRbt.so (2013.1, Build901 2013/11/27)

>  <Rbt.Parameter_File>
/home/adria/Escritorio/rDock_2013.1_src/data/scripts/dock.prm

>  <Rbt.Receptor>
sah_rdock.prm

>  <SCORE>
-268.499

>  <SCORE.INTER>
-13.7448

>  <SCORE.INTER.CONST>
1

>  <SCORE.INTER.POLAR>
-0.224341

>  <SCORE.INTER.REPUL>
0

>  <SCORE.INTER.ROT>
6

>  <SCORE.INTER.VDW>
-24.382

>  <SCORE.INTER.norm>
-0.509065

>  <SCORE.INTRA>
-260.547

>  <SCORE.INTRA.DIHEDRAL>
-4.61134

>  <SCORE.INTRA.DIHEDRAL.0>
11.6174

>  <SCORE.INTRA.POLAR>
0.0348358

>  <SCORE.INTRA.POLAR.0>
-0.0348358

>  <SCORE.INTRA.REPUL>
0

>  <SCORE.INTRA.REPUL.0>
0

>  <SCORE.INTRA.VDW>
-258.359

>  <SCORE.INTRA.VDW.0>
257.335

>  <SCORE.INTRA.norm>
-9.64987

>  <SCORE.RESTR>
0.0201489

>  <SCORE.RESTR.CAVITY>
0.0201489

>  <SCORE.RESTR.norm>
0.000746256

>  <SCORE.SYSTEM>
5.77177

>  <SCORE.SYSTEM.CONST>
0

>  <SCORE.SYSTEM.DIHEDRAL>
9.42753

>  <SCORE.SYSTEM.POLAR>
-4.09426

>  <SCORE.SYSTEM.VDW>
14.9785

>  <SCORE.SYSTEM.norm>
0.213769

>  <SCORE.heavy>
27

>  <SCORE.norm>
-9.94442

$$$$
F2359-0040
  rDOCK(R)          3D
libRbt.so/2013.1/901 2013/11/27
 29 32  0  0  0  0  0  0  0  0999 V2000
  -16.3666   11.4145  -18.3023 F   0  0  0  0  0  0
  -16.6524   12.6649  -17.9265 C   0  0  0  0  0  0
  -17.9804   12.9397  -16.8026 C   0  0  0  0  0  0
  -18.1931   14.4586  -15.8844 C   0  0  0  0  0  0
  -16.9708   15.8237  -16.1702 C   0  0  0  0  0  0
  -17.6444   16.9808  -15.7314 N   0  0  0  0  0  0
  -17.3339   18.3124  -15.8284 C   0  0  0  0  0  0
  -16.1956   18.7625  -16.3724 C   0  0  0  0  0  0
  -15.2282   17.8993  -16.8085 N   0  0  0  0  0  0
  -14.2284   18.4950  -17.4557 C   0  0  0  0  0  0
  -14.2141   19.8663  -17.6135 C   0  0  0  0  0  0
  -15.1712   20.7014  -17.1327 N   0  0  0  0  0  0
  -16.2045   20.1625  -16.5018 C   0  0  0  0  0  0
  -17.1767   20.9918  -16.0717 N   0  0  0  0  0  0
  -18.2069   20.4333  -15.4925 C   0  0  0  0  0  0
  -19.2632   21.1152  -14.9516 N   0  0  0  0  0  0
  -20.4513   20.5454  -14.2909 C   0  0  0  0  0  0
  -21.2195   19.4324  -15.0377 C   0  0  0  0  0  0
  -22.3065   18.7656  -14.2076 C   0  0  0  0  0  0
  -21.8789   17.9754  -12.6662 C   0  0  0  0  0  0
  -23.2081   17.6347  -11.4409 C   0  0  0  0  0  0
  -25.1372   18.0207  -12.0809 C   0  0  0  0  0  0
  -25.3932   18.7307  -13.7010 C   0  0  0  0  0  0
  -24.0134   19.1373  -14.6771 C   0  0  0  0  0  0
  -18.2662   19.1484  -15.4631 N   0  0  0  0  0  0
  -15.5741   15.2779  -17.5594 C   0  0  0  0  0  0
  -15.4907   13.7632  -18.3276 C   0  0  0  0  0  0
  -18.3927   16.8179  -15.0459 H   0  0  0  0  0  0
  -19.2162   22.1071  -15.0960 H   0  0  0  0  0  0
  1  2  1  0  0  0
  2  3  2  0  0  0
  2 27  1  0  0  0
  3  4  1  0  0  0
  4  5  2  0  0  0
  5  6  1  0  0  0
  5 26  1  0  0  0
  6  7  1  0  0  0
  6 28  1  0  0  0
  7  8  2  0  0  0
  7 25  1  0  0  0
  8  9  1  0  0  0
  8 13  1  0  0  0
  9 10  2  0  0  0
 10 11  1  0  0  0
 11 12  2  0  0  0
 12 13  1  0  0  0
 13 14  2  0  0  0
 14 15  1  0  0  0
 15 16  1  0  0  0
 15 25  2  0  0  0
 16 17  1  0  0  0
 16 29  1  0  0  0
 17 18  1  0  0  0
 18 19  1  0  0  0
 19 20  2  0  0  0
 19 24  1  0  0  0
 20 21  1  0  0  0
 21 22  2  0  0  0
 22 23  1  0  0  0
 23 24  2  0  0  0
 26 27  2  0  0  0
M  END
>  <CHROM.0>
-62.87025158,-73.26988790,-128.86802572,63.12972409,167.88553738,-58.50875484
-156.57717494,-163.36777600

>  <CHROM.1>
-171.20415309,-2.76151671,179.81825850,-50.65315001,171.75392462,-58.15348866
-18.48947126,17.70080563,-15.75359113,0.46926840,-0.44206391,-2.97904155

>  <Name>
F2359-0040

>  <RI>
3.03619e+07

>  <Rbt.Current_Directory>
/home/adria/Escritorio/rDock_CMTR_LC/2pxcA_model/inputs_sah

>  <Rbt.Executable>
rbdock ($Id: //depot/dev/client3/rdock/2013.1/src/exe/rbdock.cxx#4 $)

>  <Rbt.Library>
libRbt.so (2013.1, Build901 2013/11/27)

>  <Rbt.Parameter_File>
/home/adria/Escritorio/rDock_2013.1_src/data/scripts/dock.prm

>  <Rbt.Receptor>
sah_rdock.prm

>  <SCORE>
-274.025

>  <SCORE.INTER>
-10.4667

>  <SCORE.INTER.CONST>
1

>  <SCORE.INTER.POLAR>
-0.243198

>  <SCORE.INTER.REPUL>
0

>  <SCORE.INTER.ROT>
6

>  <SCORE.INTER.VDW>
-21.0398

>  <SCORE.INTER.norm>
-0.387656

>  <SCORE.INTRA>
-261.074

>  <SCORE.INTRA.DIHEDRAL>
-6.23053

>  <SCORE.INTRA.DIHEDRAL.0>
11.6174

>  <SCORE.INTRA.POLAR>
0.0348358

>  <SCORE.INTRA.POLAR.0>
-0.0348358

>  <SCORE.INTRA.REPUL>
0

>  <SCORE.INTRA.REPUL.0>
0

>  <SCORE.INTRA.VDW>
-258.078

>  <SCORE.INTRA.VDW.0>
257.335

>  <SCORE.INTRA.norm>
-9.66942

>  <SCORE.RESTR>
0

>  <SCORE.RESTR.CAVITY>
0

>  <SCORE.RESTR.norm>
0

>  <SCORE.SYSTEM>
-2.48401

>  <SCORE.SYSTEM.CONST>
0

>  <SCORE.SYSTEM.DIHEDRAL>
6.62429

>  <SCORE.SYSTEM.POLAR>
-4.53147

>  <SCORE.SYSTEM.REPUL>
0.0390139

>  <SCORE.SYSTEM.VDW>
9.41578

>  <SCORE.SYSTEM.norm>
-0.0920005

>  <SCORE.heavy>
27

>  <SCORE.norm>
-10.1491

$$$$
F2359-0040
  rDOCK(R)          3D
libRbt.so/2013.1/901 2013/11/27
 29 32  0  0  0  0  0  0  0  0999 V2000
  -15.3181   11.9325  -21.0352 F   0  0  0  0  0  0
  -15.6415   12.9736  -20.2619 C   0  0  0  0  0  0
  -17.3278   13.2195  -19.8170 C   0  0  0  0  0  0
  -17.8452   14.2694  -18.4659 C   0  0  0  0  0  0
  -16.5327   15.1744  -17.5185 C   0  0  0  0  0  0
  -17.2272   16.2348  -16.9033 N   0  0  0  0  0  0
  -16.8209   17.4772  -16.4906 C   0  0  0  0  0  0
  -15.8065   18.1431  -17.0577 C   0  0  0  0  0  0
  -15.0590   17.5809  -18.0559 N   0  0  0  0  0  0
  -14.1889   18.4206  -18.6138 C   0  0  0  0  0  0
  -14.0794   19.7198  -18.1605 C   0  0  0  0  0  0
  -14.8090   20.2372  -17.1385 N   0  0  0  0  0  0
  -15.7098   19.4552  -16.5615 C   0  0  0  0  0  0
  -16.4667   19.9895  -15.5820 N   0  0  0  0  0  0
  -17.3788   19.2128  -15.0590 C   0  0  0  0  0  0
  -18.2048   19.5644  -14.0258 N   0  0  0  0  0  0
  -19.3014   18.7675  -13.4470 C   0  0  0  0  0  0
  -20.3479   19.5103  -12.5869 C   0  0  0  0  0  0
  -21.4813   18.6256  -12.0890 C   0  0  0  0  0  0
  -22.4523   19.1435  -10.6847 C   0  0  0  0  0  0
  -24.0973   18.3690  -10.4044 C   0  0  0  0  0  0
  -24.5693   16.7906  -11.6558 C   0  0  0  0  0  0
  -23.4330   16.3413  -12.9601 C   0  0  0  0  0  0
  -21.9866   17.2789  -13.1859 C   0  0  0  0  0  0
  -17.5539   18.0470  -15.5743 N   0  0  0  0  0  0
  -14.6753   14.7691  -18.2699 C   0  0  0  0  0  0
  -14.3452   13.7084  -19.5573 C   0  0  0  0  0  0
  -18.1411   15.9859  -16.5042 H   0  0  0  0  0  0
  -18.0560   20.4997  -13.6942 H   0  0  0  0  0  0
  1  2  1  0  0  0
  2  3  2  0  0  0
  2 27  1  0  0  0
  3  4  1  0  0  0
  4  5  2  0  0  0
  5  6  1  0  0  0
  5 26  1  0  0  0
  6  7  1  0  0  0
  6 28  1  0  0  0
  7  8  2  0  0  0
  7 25  1  0  0  0
  8  9  1  0  0  0
  8 13  1  0  0  0
  9 10  2  0  0  0
 10 11  1  0  0  0
 11 12  2  0  0  0
 12 13  1  0  0  0
 13 14  2  0  0  0
 14 15  1  0  0  0
 15 16  1  0  0  0
 15 25  2  0  0  0
 16 17  1  0  0  0
 16 29  1  0  0  0
 17 18  1  0  0  0
 18 19  1  0  0  0
 19 20  2  0  0  0
 19 24  1  0  0  0
 20 21  1  0  0  0
 21 22  2  0  0  0
 22 23  1  0  0  0
 23 24  2  0  0  0
 26 27  2  0  0  0
M  END
>  <CHROM.0>
-60.62623622,-168.25166623,107.72533935,64.54495873,168.31269499,59.22520336
-37.79317284,-160.15467292

>  <CHROM.1>
-153.15519549,28.11889060,176.07527125,-162.42468318,177.04018085,159.80696706
-17.84034699,17.17071028,-16.02655963,0.65967356,-0.58057228,-2.61040366

>  <Name>
F2359-0040

>  <RI>
3.03619e+07

>  <Rbt.Current_Directory>
/home/adria/Escritorio/rDock_CMTR_LC/2pxcA_model/inputs_sah

>  <Rbt.Executable>
rbdock ($Id: //depot/dev/client3/rdock/2013.1/src/exe/rbdock.cxx#4 $)

>  <Rbt.Library>
libRbt.so (2013.1, Build901 2013/11/27)

>  <Rbt.Parameter_File>
/home/adria/Escritorio/rDock_2013.1_src/data/scripts/dock.prm

>  <Rbt.Receptor>
sah_rdock.prm

>  <SCORE>
-275.916

>  <SCORE.INTER>
-14.3395

>  <SCORE.INTER.CONST>
1

>  <SCORE.INTER.POLAR>
-0.0120641

>  <SCORE.INTER.REPUL>
0

>  <SCORE.INTER.ROT>
6

>  <SCORE.INTER.VDW>
-25.6985

>  <SCORE.INTER.norm>
-0.531092

>  <SCORE.INTRA>
-260.341

>  <SCORE.INTRA.DIHEDRAL>
-4.79291

>  <SCORE.INTRA.DIHEDRAL.0>
11.6174

>  <SCORE.INTRA.POLAR>
0.0348358

>  <SCORE.INTRA.POLAR.0>
-0.0348358

>  <SCORE.INTRA.REPUL>
0

>  <SCORE.INTRA.REPUL.0>
0

>  <SCORE.INTRA.VDW>
-258.063

>  <SCORE.INTRA.VDW.0>
257.335

>  <SCORE.INTRA.norm>
-9.64224

>  <SCORE.RESTR>
0

>  <SCORE.RESTR.CAVITY>
0

>  <SCORE.RESTR.norm>
0

>  <SCORE.SYSTEM>
-1.23585

>  <SCORE.SYSTEM.CONST>
0

>  <SCORE.SYSTEM.DIHEDRAL>
6.2981

>  <SCORE.SYSTEM.POLAR>
-4.14556

>  <SCORE.SYSTEM.VDW>
9.71

>  <SCORE.SYSTEM.norm>
-0.045772

>  <SCORE.heavy>
27

>  <SCORE.norm>
-10.2191

$$$$
F2359-0040
  rDOCK(R)          3D
libRbt.so/2013.1/901 2013/11/27
 29 32  0  0  0  0  0  0  0  0999 V2000
  -14.9365   12.4316  -20.3416 F   0  0  0  0  0  0
  -15.4594   13.5384  -19.8049 C   0  0  0  0  0  0
  -17.2105   13.6959  -19.7015 C   0  0  0  0  0  0
  -18.0306   14.8754  -18.6375 C   0  0  0  0  0  0
  -16.9723   16.0151  -17.6274 C   0  0  0  0  0  0
  -17.8312   17.0864  -17.3117 N   0  0  0  0  0  0
  -17.5860   18.3391  -16.8120 C   0  0  0  0  0  0
  -16.3929   18.9419  -16.8967 C   0  0  0  0  0  0
  -15.3113   18.3014  -17.4362 N   0  0  0  0  0  0
  -14.2426   19.0821  -17.5836 C   0  0  0  0  0  0
  -14.2783   20.4022  -17.1816 C   0  0  0  0  0  0
  -15.3567   20.9990  -16.6110 N   0  0  0  0  0  0
  -16.4583   20.2776  -16.4625 C   0  0  0  0  0  0
  -17.5415   20.8895  -15.9427 N   0  0  0  0  0  0
  -18.6292   20.1708  -15.8477 C   0  0  0  0  0  0
  -19.8073   20.6054  -15.3033 N   0  0  0  0  0  0
  -20.0028   21.7436  -14.3873 C   0  0  0  0  0  0
  -21.1505   21.6438  -13.3581 C   0  0  0  0  0  0
  -21.2981   22.8731  -12.4735 C   0  0  0  0  0  0
  -20.0825   23.2008  -11.2094 C   0  0  0  0  0  0
  -19.9638   24.8964  -10.5057 C   0  0  0  0  0  0
  -21.4275   26.2247  -11.1168 C   0  0  0  0  0  0
  -22.6318   25.6990  -12.3283 C   0  0  0  0  0  0
  -22.5092   24.1048  -13.0105 C   0  0  0  0  0  0
  -18.6181   18.9820  -16.3398 N   0  0  0  0  0  0
  -14.9872   15.6724  -17.9750 C   0  0  0  0  0  0
  -14.3620   14.4749  -19.0077 C   0  0  0  0  0  0
  -18.8277   16.8432  -17.2452 H   0  0  0  0  0  0
  -20.5918   20.0210  -15.5268 H   0  0  0  0  0  0
  1  2  1  0  0  0
  2  3  2  0  0  0
  2 27  1  0  0  0
  3  4  1  0  0  0
  4  5  2  0  0  0
  5  6  1  0  0  0
  5 26  1  0  0  0
  6  7  1  0  0  0
  6 28  1  0  0  0
  7  8  2  0  0  0
  7 25  1  0  0  0
  8  9  1  0  0  0
  8 13  1  0  0  0
  9 10  2  0  0  0
 10 11  1  0  0  0
 11 12  2  0  0  0
 12 13  1  0  0  0
 13 14  2  0  0  0
 14 15  1  0  0  0
 15 16  1  0  0  0
 15 25  2  0  0  0
 16 17  1  0  0  0
 16 29  1  0  0  0
 17 18  1  0  0  0
 18 19  1  0  0  0
 19 20  2  0  0  0
 19 24  1  0  0  0
 20 21  1  0  0  0
 21 22  2  0  0  0
 22 23  1  0  0  0
 23 24  2  0  0  0
 26 27  2  0  0  0
M  END
>  <CHROM.0>
-59.34144807,-75.12999754,-44.35527384,-61.19793494,168.12359592,63.30087171
83.57134653,-160.63478160

>  <CHROM.1>
-165.98095049,21.29810371,-19.58676765,-148.87856458,-178.80649834,-71.85900265
-17.86687252,19.35825874,-16.03099669,1.10587927,-0.27722733,-2.64799959

>  <Name>
F2359-0040

>  <RI>
3.03619e+07

>  <Rbt.Current_Directory>
/home/adria/Escritorio/rDock_CMTR_LC/2pxcA_model/inputs_sah

>  <Rbt.Executable>
rbdock ($Id: //depot/dev/client3/rdock/2013.1/src/exe/rbdock.cxx#4 $)

>  <Rbt.Library>
libRbt.so (2013.1, Build901 2013/11/27)

>  <Rbt.Parameter_File>
/home/adria/Escritorio/rDock_2013.1_src/data/scripts/dock.prm

>  <Rbt.Receptor>
sah_rdock.prm

>  <SCORE>
-281.09

>  <SCORE.INTER>
-17.7396

>  <SCORE.INTER.CONST>
1

>  <SCORE.INTER.POLAR>
-0.0160124

>  <SCORE.INTER.REPUL>
0

>  <SCORE.INTER.ROT>
6

>  <SCORE.INTER.VDW>
-29.0851

>  <SCORE.INTER.norm>
-0.657022

>  <SCORE.INTRA>
-260.974

>  <SCORE.INTRA.DIHEDRAL>
-5.64814

>  <SCORE.INTRA.DIHEDRAL.0>
11.6174

>  <SCORE.INTRA.POLAR>
0.0348358

>  <SCORE.INTRA.POLAR.0>
-0.0348358

>  <SCORE.INTRA.REPUL>
0

>  <SCORE.INTRA.REPUL.0>
0

>  <SCORE.INTRA.VDW>
-258.268

>  <SCORE.INTRA.VDW.0>
257.335

>  <SCORE.INTRA.norm>
-9.66571

>  <SCORE.RESTR>
0

>  <SCORE.RESTR.CAVITY>
0

>  <SCORE.RESTR.norm>
0

>  <SCORE.SYSTEM>
-2.37616

>  <SCORE.SYSTEM.CONST>
0

>  <SCORE.SYSTEM.DIHEDRAL>
4.08629

>  <SCORE.SYSTEM.POLAR>
-3.96361

>  <SCORE.SYSTEM.REPUL>
0.0421153

>  <SCORE.SYSTEM.VDW>
8.84638

>  <SCORE.SYSTEM.norm>
-0.0880061

>  <SCORE.heavy>
27

>  <SCORE.norm>
-10.4107

$$$$
F2359-0040
  rDOCK(R)          3D
libRbt.so/2013.1/901 2013/11/27
 29 32  0  0  0  0  0  0  0  0999 V2000
  -13.4442   18.4103  -19.0092 F   0  0  0  0  0  0
  -14.4950   18.6130  -18.2084 C   0  0  0  0  0  0
  -14.5226   20.0390  -17.1751 C   0  0  0  0  0  0
  -16.0089   20.6672  -16.4057 C   0  0  0  0  0  0
  -17.5890   19.7366  -16.6824 C   0  0  0  0  0  0
  -18.4149   20.1439  -15.6160 N   0  0  0  0  0  0
  -19.2377   19.4400  -14.7756 C   0  0  0  0  0  0
  -19.2629   18.1017  -14.7247 C   0  0  0  0  0  0
  -18.5034   17.3453  -15.5745 N   0  0  0  0  0  0
  -18.5264   16.0423  -15.3005 C   0  0  0  0  0  0
  -19.2908   15.5589  -14.2577 C   0  0  0  0  0  0
  -20.0674   16.3326  -13.4560 N   0  0  0  0  0  0
  -20.0643   17.6411  -13.6652 C   0  0  0  0  0  0
  -20.7969   18.4094  -12.8340 N   0  0  0  0  0  0
  -20.7425   19.7004  -13.0317 C   0  0  0  0  0  0
  -21.4532   20.6297  -12.3215 N   0  0  0  0  0  0
  -22.5520   20.3799  -11.3712 C   0  0  0  0  0  0
  -22.7979   21.4347  -10.2696 C   0  0  0  0  0  0
  -23.0619   22.8358  -10.8010 C   0  0  0  0  0  0
  -21.6963   23.9573  -11.0470 C   0  0  0  0  0  0
  -21.9288   25.4178  -12.1412 C   0  0  0  0  0  0
  -23.8578   25.7304  -12.8205 C   0  0  0  0  0  0
  -25.1327   24.5506  -12.4000 C   0  0  0  0  0  0
  -24.7107   23.1361  -11.4817 C   0  0  0  0  0  0
  -19.9309   20.1457  -13.9252 N   0  0  0  0  0  0
  -17.2761   18.0945  -17.8590 C   0  0  0  0  0  0
  -15.7869   17.6470  -18.5471 C   0  0  0  0  0  0
  -18.6050   21.1530  -15.5707 H   0  0  0  0  0  0
  -21.2116   21.5772  -12.5471 H   0  0  0  0  0  0
  1  2  1  0  0  0
  2  3  2  0  0  0
  2 27  1  0  0  0
  3  4  1  0  0  0
  4  5  2  0  0  0
  5  6  1  0  0  0
  5 26  1  0  0  0
  6  7  1  0  0  0
  6 28  1  0  0  0
  7  8  2  0  0  0
  7 25  1  0  0  0
  8  9  1  0  0  0
  8 13  1  0  0  0
  9 10  2  0  0  0
 10 11  1  0  0  0
 11 12  2  0  0  0
 12 13  1  0  0  0
 13 14  2  0  0  0
 14 15  1  0  0  0
 15 16  1  0  0  0
 15 25  2  0  0  0
 16 17  1  0  0  0
 16 29  1  0  0  0
 17 18  1  0  0  0
 18 19  1  0  0  0
 19 20  2  0  0  0
 19 24  1  0  0  0
 20 21  1  0  0  0
 21 22  2  0  0  0
 22 23  1  0  0  0
 23 24  2  0  0  0
 26 27  2  0  0  0
M  END
>  <CHROM.0>
-63.74965974,-165.69711459,110.68963498,66.27346286,-31.06643059,-52.05322207
-35.45224301,-155.03479593

>  <CHROM.1>
-135.62550723,9.44126506,-10.53205872,154.40126440,57.05986588,-90.56437096
-19.59929065,19.98326006,-14.33224182,-0.43808766,0.69872638,-0.08792498

>  <Name>
F2359-0040

>  <RI>
3.03619e+07

>  <Rbt.Current_Directory>
/home/adria/Escritorio/rDock_CMTR_LC/2pxcA_model/inputs_sah

>  <Rbt.Executable>
rbdock ($Id: //depot/dev/client3/rdock/2013.1/src/exe/rbdock.cxx#4 $)

>  <Rbt.Library>
libRbt.so (2013.1, Build901 2013/11/27)

>  <Rbt.Parameter_File>
/home/adria/Escritorio/rDock_2013.1_src/data/scripts/dock.prm

>  <Rbt.Receptor>
sah_rdock.prm

>  <SCORE>
-273.476

>  <SCORE.INTER>
-7.61829

>  <SCORE.INTER.CONST>
1

>  <SCORE.INTER.POLAR>
-0.601415

>  <SCORE.INTER.REPUL>
0

>  <SCORE.INTER.ROT>
6

>  <SCORE.INTER.VDW>
-16.9735

>  <SCORE.INTER.norm>
-0.282159

>  <SCORE.INTRA>
-260.004

>  <SCORE.INTRA.DIHEDRAL>
-2.65819

>  <SCORE.INTRA.DIHEDRAL.0>
11.6174

>  <SCORE.INTRA.POLAR>
0.0348358

>  <SCORE.INTRA.POLAR.0>
-0.0348358

>  <SCORE.INTRA.REPUL>
0

>  <SCORE.INTRA.REPUL.0>
0

>  <SCORE.INTRA.VDW>
-258.794

>  <SCORE.INTRA.VDW.0>
257.335

>  <SCORE.INTRA.norm>
-9.62979

>  <SCORE.RESTR>
0

>  <SCORE.RESTR.CAVITY>
0

>  <SCORE.RESTR.norm>
0

>  <SCORE.SYSTEM>
-5.8534

>  <SCORE.SYSTEM.CONST>
0

>  <SCORE.SYSTEM.DIHEDRAL>
10.3167

>  <SCORE.SYSTEM.POLAR>
-4.30609

>  <SCORE.SYSTEM.VDW>
3.62897

>  <SCORE.SYSTEM.norm>
-0.216792

>  <SCORE.heavy>
27

>  <SCORE.norm>
-10.1287

$$$$
F2359-0040
  rDOCK(R)          3D
libRbt.so/2013.1/901 2013/11/27
 29 32  0  0  0  0  0  0  0  0999 V2000
  -24.0974   15.4671  -15.3005 F   0  0  0  0  0  0
  -23.8639   16.7113  -14.8717 C   0  0  0  0  0  0
  -24.7186   18.0529  -15.6277 C   0  0  0  0  0  0
  -24.8494   19.6761  -14.8902 C   0  0  0  0  0  0
  -24.0014   19.9620  -13.2659 C   0  0  0  0  0  0
  -23.8590   21.3621  -13.1982 N   0  0  0  0  0  0
  -22.7611   22.1624  -13.0165 C   0  0  0  0  0  0
  -22.8344   23.4959  -12.9136 C   0  0  0  0  0  0
  -24.0253   24.1538  -13.0558 N   0  0  0  0  0  0
  -23.9569   25.4548  -12.7799 C   0  0  0  0  0  0
  -22.7567   26.0321  -12.4171 C   0  0  0  0  0  0
  -21.5812   25.3583  -12.3240 N   0  0  0  0  0  0
  -21.5930   24.0548  -12.5622 C   0  0  0  0  0  0
  -20.4335   23.3819  -12.4183 N   0  0  0  0  0  0
  -20.4794   22.0904  -12.6145 C   0  0  0  0  0  0
  -19.3977   21.2535  -12.5607 N   0  0  0  0  0  0
  -19.4063   19.7795  -12.5686 C   0  0  0  0  0  0
  -19.8613   19.0744  -13.8657 C   0  0  0  0  0  0
  -18.7839   18.9924  -14.9370 C   0  0  0  0  0  0
  -17.8651   20.4569  -15.3773 C   0  0  0  0  0  0
  -16.2628   20.2710  -16.2619 C   0  0  0  0  0  0
  -15.7845   18.3476  -16.8548 C   0  0  0  0  0  0
  -16.8710   17.0010  -16.4069 C   0  0  0  0  0  0
  -18.2721   17.3294  -15.4317 C   0  0  0  0  0  0
  -21.6259   21.5476  -12.8294 N   0  0  0  0  0  0
  -23.0333   18.2747  -12.6376 C   0  0  0  0  0  0
  -23.0321   16.7811  -13.4504 C   0  0  0  0  0  0
  -24.7329   21.8843  -13.0566 H   0  0  0  0  0  0
  -18.5249   21.7338  -12.4404 H   0  0  0  0  0  0
  1  2  1  0  0  0
  2  3  2  0  0  0
  2 27  1  0  0  0
  3  4  1  0  0  0
  4  5  2  0  0  0
  5  6  1  0  0  0
  5 26  1  0  0  0
  6  7  1  0  0  0
  6 28  1  0  0  0
  7  8  2  0  0  0
  7 25  1  0  0  0
  8  9  1  0  0  0
  8 13  1  0  0  0
  9 10  2  0  0  0
 10 11  1  0  0  0
 11 12  2  0  0  0
 12 13  1  0  0  0
 13 14  2  0  0  0
 14 15  1  0  0  0
 15 16  1  0  0  0
 15 25  2  0  0  0
 16 17  1  0  0  0
 16 29  1  0  0  0
 17 18  1  0  0  0
 18 19  1  0  0  0
 19 20  2  0  0  0
 19 24  1  0  0  0
 20 21  1  0  0  0
 21 22  2  0  0  0
 22 23  1  0  0  0
 23 24  2  0  0  0
 26 27  2  0  0  0
M  END
>  <CHROM.0>
-179.80812978,-71.61810205,103.98999559,55.60111659,-29.90601217,-57.92464291
-157.02020826,-55.02504113

>  <CHROM.1>
-124.68741175,-176.56358966,169.97258688,67.70739185,80.41302383,-49.05010621
-21.36567521,20.55452788,-13.87133543,1.09885168,-0.17806275,-2.82070922

>  <Name>
F2359-0040

>  <RI>
3.03619e+07

>  <Rbt.Current_Directory>
/home/adria/Escritorio/rDock_CMTR_LC/2pxcA_model/inputs_sah

>  <Rbt.Executable>
rbdock ($Id: //depot/dev/client3/rdock/2013.1/src/exe/rbdock.cxx#4 $)

>  <Rbt.Library>
libRbt.so (2013.1, Build901 2013/11/27)

>  <Rbt.Parameter_File>
/home/adria/Escritorio/rDock_2013.1_src/data/scripts/dock.prm

>  <Rbt.Receptor>
sah_rdock.prm

>  <SCORE>
-272.842

>  <SCORE.INTER>
-8.8159

>  <SCORE.INTER.CONST>
1

>  <SCORE.INTER.POLAR>
-0.902539

>  <SCORE.INTER.REPUL>
0.54599

>  <SCORE.INTER.ROT>
6

>  <SCORE.INTER.VDW>
-19.8772

>  <SCORE.INTER.norm>
-0.326515

>  <SCORE.INTRA>
-259.455

>  <SCORE.INTRA.DIHEDRAL>
0.231005

>  <SCORE.INTRA.DIHEDRAL.0>
11.6174

>  <SCORE.INTRA.POLAR>
0.00109179

>  <SCORE.INTRA.POLAR.0>
-0.0348358

>  <SCORE.INTRA.REPUL>
0

>  <SCORE.INTRA.REPUL.0>
0

>  <SCORE.INTRA.VDW>
-259.574

>  <SCORE.INTRA.VDW.0>
257.335

>  <SCORE.INTRA.norm>
-9.60943

>  <SCORE.RESTR>
0.0265702

>  <SCORE.RESTR.CAVITY>
0.0265702

>  <SCORE.RESTR.norm>
0.000984083

>  <SCORE.SYSTEM>
-4.59755

>  <SCORE.SYSTEM.CONST>
0

>  <SCORE.SYSTEM.DIHEDRAL>
11.7471

>  <SCORE.SYSTEM.POLAR>
-4.11558

>  <SCORE.SYSTEM.REPUL>
0.0359749

>  <SCORE.SYSTEM.VDW>
3.34199

>  <SCORE.SYSTEM.norm>
-0.17028

>  <SCORE.heavy>
27

>  <SCORE.norm>
-10.1052

$$$$
F2359-0040
  rDOCK(R)          3D
libRbt.so/2013.1/901 2013/11/27
 29 32  0  0  0  0  0  0  0  0999 V2000
  -16.7937   12.6011  -18.7550 F   0  0  0  0  0  0
  -17.1304   13.4968  -17.8218 C   0  0  0  0  0  0
  -18.1859   14.8366  -18.2612 C   0  0  0  0  0  0
  -19.0622   15.8319  -17.0625 C   0  0  0  0  0  0
  -18.8055   15.4521  -15.2655 C   0  0  0  0  0  0
  -19.1891   16.6383  -14.6089 N   0  0  0  0  0  0
  -18.5987   17.8729  -14.5311 C   0  0  0  0  0  0
  -17.5704   18.2443  -15.3049 C   0  0  0  0  0  0
  -16.9947   17.3712  -16.1866 N   0  0  0  0  0  0
  -16.0871   17.9322  -16.9834 C   0  0  0  0  0  0
  -15.7793   19.2722  -16.8606 C   0  0  0  0  0  0
  -16.3404   20.1051  -15.9463 N   0  0  0  0  0  0
  -17.2696   19.6082  -15.1427 C   0  0  0  0  0  0
  -17.8597   20.4515  -14.2718 N   0  0  0  0  0  0
  -18.8045   19.9492  -13.5211 C   0  0  0  0  0  0
  -19.4797   20.6381  -12.5502 N   0  0  0  0  0  0
  -20.7333   20.2443  -11.8822 C   0  0  0  0  0  0
  -22.0507   20.4316  -12.6668 C   0  0  0  0  0  0
  -22.4522   21.8858  -12.8657 C   0  0  0  0  0  0
  -24.1785   22.3117  -13.0122 C   0  0  0  0  0  0
  -24.6921   24.0567  -12.7377 C   0  0  0  0  0  0
  -23.1519   25.4156  -12.4899 C   0  0  0  0  0  0
  -21.4648   24.8263  -12.4610 C   0  0  0  0  0  0
  -21.1600   23.1190  -12.5806 C   0  0  0  0  0  0
  -19.1670   18.7327  -13.7315 N   0  0  0  0  0  0
  -17.4936   13.9031  -15.0239 C   0  0  0  0  0  0
  -16.7611   13.0289  -16.2851 C   0  0  0  0  0  0
  -19.9242   16.5273  -13.8992 H   0  0  0  0  0  0
  -19.0788   21.5343  -12.3422 H   0  0  0  0  0  0
  1  2  1  0  0  0
  2  3  2  0  0  0
  2 27  1  0  0  0
  3  4  1  0  0  0
  4  5  2  0  0  0
  5  6  1  0  0  0
  5 26  1  0  0  0
  6  7  1  0  0  0
  6 28  1  0  0  0
  7  8  2  0  0  0
  7 25  1  0  0  0
  8  9  1  0  0  0
  8 13  1  0  0  0
  9 10  2  0  0  0
 10 11  1  0  0  0
 11 12  2  0  0  0
 12 13  1  0  0  0
 13 14  2  0  0  0
 14 15  1  0  0  0
 15 16  1  0  0  0
 15 25  2  0  0  0
 16 17  1  0  0  0
 16 29  1  0  0  0
 17 18  1  0  0  0
 18 19  1  0  0  0
 19 20  2  0  0  0
 19 24  1  0  0  0
 20 21  1  0  0  0
 21 22  2  0  0  0
 22 23  1  0  0  0
 23 24  2  0  0  0
 26 27  2  0  0  0
M  END
>  <CHROM.0>
179.82816107,68.35839046,-8.75652551,59.69406934,168.33632936,178.93581072
-37.16070428,-166.35050147

>  <CHROM.1>
-71.35775711,11.61845665,165.30964585,-76.94647382,-69.87756641,-151.02062516
-19.12632718,18.74816395,-14.80705791,1.03654991,-0.37092314,-2.86473619

>  <Name>
F2359-0040

>  <RI>
3.03619e+07

>  <Rbt.Current_Directory>
/home/adria/Escritorio/rDock_CMTR_LC/2pxcA_model/inputs_sah

>  <Rbt.Executable>
rbdock ($Id: //depot/dev/client3/rdock/2013.1/src/exe/rbdock.cxx#4 $)

>  <Rbt.Library>
libRbt.so (2013.1, Build901 2013/11/27)

>  <Rbt.Parameter_File>
/home/adria/Escritorio/rDock_2013.1_src/data/scripts/dock.prm

>  <Rbt.Receptor>
sah_rdock.prm

>  <SCORE>
-270.607

>  <SCORE.INTER>
-12.7193

>  <SCORE.INTER.CONST>
1

>  <SCORE.INTER.POLAR>
-0.844325

>  <SCORE.INTER.REPUL>
0

>  <SCORE.INTER.ROT>
6

>  <SCORE.INTER.VDW>
-21.2486

>  <SCORE.INTER.norm>
-0.471084

>  <SCORE.INTRA>
-256.259

>  <SCORE.INTRA.DIHEDRAL>
3.96784

>  <SCORE.INTRA.DIHEDRAL.0>
11.6174

>  <SCORE.INTRA.POLAR>
0.0348358

>  <SCORE.INTRA.POLAR.0>
-0.0348358

>  <SCORE.INTRA.REPUL>
0

>  <SCORE.INTRA.REPUL.0>
0

>  <SCORE.INTRA.VDW>
-258.361

>  <SCORE.INTRA.VDW.0>
257.335

>  <SCORE.INTRA.norm>
-9.49106

>  <SCORE.RESTR>
0

>  <SCORE.RESTR.CAVITY>
0

>  <SCORE.RESTR.norm>
0

>  <SCORE.SYSTEM>
-1.62932

>  <SCORE.SYSTEM.CONST>
0

>  <SCORE.SYSTEM.DIHEDRAL>
5.8156

>  <SCORE.SYSTEM.POLAR>
-4.16034

>  <SCORE.SYSTEM.VDW>
9.60802

>  <SCORE.SYSTEM.norm>
-0.0603453

>  <SCORE.heavy>
27

>  <SCORE.norm>
-10.0225

$$$$
F2359-0040
  rDOCK(R)          3D
libRbt.so/2013.1/901 2013/11/27
 29 32  0  0  0  0  0  0  0  0999 V2000
  -21.9192   26.9873   -9.4232 F   0  0  0  0  0  0
  -21.6624   25.9164  -10.1807 C   0  0  0  0  0  0
  -22.4530   25.7652  -11.7472 C   0  0  0  0  0  0
  -21.8895   24.6550  -13.0300 C   0  0  0  0  0  0
  -20.4217   23.5817  -12.6654 C   0  0  0  0  0  0
  -20.5273   22.5322  -13.5995 N   0  0  0  0  0  0
  -20.1394   21.2185  -13.5475 C   0  0  0  0  0  0
  -19.2132   20.6944  -14.3609 C   0  0  0  0  0  0
  -18.6399   21.4384  -15.3553 N   0  0  0  0  0  0
  -17.6366   20.8221  -15.9774 C   0  0  0  0  0  0
  -17.2757   19.5378  -15.6231 C   0  0  0  0  0  0
  -17.8921   18.8092  -14.6567 N   0  0  0  0  0  0
  -18.8816   19.3806  -13.9856 C   0  0  0  0  0  0
  -19.4559   18.6713  -12.9931 N   0  0  0  0  0  0
  -20.3988   19.2720  -12.3158 C   0  0  0  0  0  0
  -21.1253   18.6958  -11.3091 N   0  0  0  0  0  0
  -22.4664   18.0919  -11.4070 C   0  0  0  0  0  0
  -23.5984   18.7252  -10.5679 C   0  0  0  0  0  0
  -23.9161   20.1653  -10.9427 C   0  0  0  0  0  0
  -25.2864   20.5113  -12.0315 C   0  0  0  0  0  0
  -25.9819   22.2138  -12.0752 C   0  0  0  0  0  0
  -24.9425   23.6345  -10.9883 C   0  0  0  0  0  0
  -23.5274   23.1291  -10.0205 C   0  0  0  0  0  0
  -23.0936   21.4466   -9.9659 C   0  0  0  0  0  0
  -20.6396   20.5093  -12.5736 N   0  0  0  0  0  0
  -19.7325   23.9024  -10.7678 C   0  0  0  0  0  0
  -20.3690   25.0325   -9.6681 C   0  0  0  0  0  0
  -20.7437   22.8228  -14.5614 H   0  0  0  0  0  0
  -20.6892   18.7678  -10.4082 H   0  0  0  0  0  0
  1  2  1  0  0  0
  2  3  2  0  0  0
  2 27  1  0  0  0
  3  4  1  0  0  0
  4  5  2  0  0  0
  5  6  1  0  0  0
  5 26  1  0  0  0
  6  7  1  0  0  0
  6 28  1  0  0  0
  7  8  2  0  0  0
  7 25  1  0  0  0
  8  9  1  0  0  0
  8 13  1  0  0  0
  9 10  2  0  0  0
 10 11  1  0  0  0
 11 12  2  0  0  0
 12 13  1  0  0  0
 13 14  2  0  0  0
 14 15  1  0  0  0
 15 16  1  0  0  0
 15 25  2  0  0  0
 16 17  1  0  0  0
 16 29  1  0  0  0
 17 18  1  0  0  0
 18 19  1  0  0  0
 19 20  2  0  0  0
 19 24  1  0  0  0
 20 21  1  0  0  0
 21 22  2  0  0  0
 22 23  1  0  0  0
 23 24  2  0  0  0
 26 27  2  0  0  0
M  END
>  <CHROM.0>
170.69053599,-74.64244442,-163.70871433,64.76957209,-30.04489858,-177.18691029
80.86664580,-168.93438827

>  <CHROM.1>
-149.86528344,-116.36454248,-97.70629380,-118.39672238,62.82158217,97.93284925
-21.23031888,21.72252311,-12.24739109,-2.28800560,-0.55412214,-2.91065606

>  <Name>
F2359-0040

>  <RI>
3.03619e+07

>  <Rbt.Current_Directory>
/home/adria/Escritorio/rDock_CMTR_LC/2pxcA_model/inputs_sah

>  <Rbt.Executable>
rbdock ($Id: //depot/dev/client3/rdock/2013.1/src/exe/rbdock.cxx#4 $)

>  <Rbt.Library>
libRbt.so (2013.1, Build901 2013/11/27)

>  <Rbt.Parameter_File>
/home/adria/Escritorio/rDock_2013.1_src/data/scripts/dock.prm

>  <Rbt.Receptor>
sah_rdock.prm

>  <SCORE>
-274.764

>  <SCORE.INTER>
-14.6274

>  <SCORE.INTER.CONST>
1

>  <SCORE.INTER.POLAR>
-0.64099

>  <SCORE.INTER.REPUL>
0

>  <SCORE.INTER.ROT>
6

>  <SCORE.INTER.VDW>
-23.848

>  <SCORE.INTER.norm>
-0.541756

>  <SCORE.INTRA>
-253.489

>  <SCORE.INTRA.DIHEDRAL>
14.7766

>  <SCORE.INTRA.DIHEDRAL.0>
11.6174

>  <SCORE.INTRA.POLAR>
0.0348358

>  <SCORE.INTRA.POLAR.0>
-0.0348358

>  <SCORE.INTRA.REPUL>
0

>  <SCORE.INTRA.REPUL.0>
0

>  <SCORE.INTRA.VDW>
-260.996

>  <SCORE.INTRA.VDW.0>
257.335

>  <SCORE.INTRA.norm>
-9.38849

>  <SCORE.RESTR>
0

>  <SCORE.RESTR.CAVITY>
0

>  <SCORE.RESTR.norm>
0

>  <SCORE.SYSTEM>
-6.64686

>  <SCORE.SYSTEM.CONST>
0

>  <SCORE.SYSTEM.DIHEDRAL>
6.91372

>  <SCORE.SYSTEM.POLAR>
-3.86197

>  <SCORE.SYSTEM.REPUL>
0.0413357

>  <SCORE.SYSTEM.VDW>
2.82029

>  <SCORE.SYSTEM.norm>
-0.24618

>  <SCORE.heavy>
27

>  <SCORE.norm>
-10.1764

$$$$
F2359-0040
  rDOCK(R)          3D
libRbt.so/2013.1/901 2013/11/27
 29 32  0  0  0  0  0  0  0  0999 V2000
  -22.5109   27.0499   -8.7140 F   0  0  0  0  0  0
  -22.0861   26.1043   -9.5578 C   0  0  0  0  0  0
  -20.3551   25.8841   -9.7972 C   0  0  0  0  0  0
  -19.6420   24.4146  -10.5233 C   0  0  0  0  0  0
  -20.7968   23.0782  -11.0889 C   0  0  0  0  0  0
  -20.0334   22.3376  -12.0130 N   0  0  0  0  0  0
  -20.3225   21.2185  -12.7499 C   0  0  0  0  0  0
  -21.5705   20.7771  -12.9544 C   0  0  0  0  0  0
  -22.6445   21.3910  -12.3706 N   0  0  0  0  0  0
  -23.8210   20.9277  -12.7883 C   0  0  0  0  0  0
  -23.8831   19.8996  -13.7073 C   0  0  0  0  0  0
  -22.7963   19.2824  -14.2390 N   0  0  0  0  0  0
  -21.5978   19.7186  -13.8796 C   0  0  0  0  0  0
  -20.5233   19.1366  -14.4493 N   0  0  0  0  0  0
  -19.3536   19.6138  -14.1135 C   0  0  0  0  0  0
  -18.1542   19.1204  -14.5507 N   0  0  0  0  0  0
  -17.9107   17.8368  -15.2332 C   0  0  0  0  0  0
  -17.8457   17.8491  -16.7766 C   0  0  0  0  0  0
  -17.3545   16.5444  -17.3865 C   0  0  0  0  0  0
  -18.5378   15.3442  -17.9716 C   0  0  0  0  0  0
  -17.9796   14.0412  -19.1443 C   0  0  0  0  0  0
  -15.9439   13.9740  -19.5063 C   0  0  0  0  0  0
  -14.8840   15.2046  -18.7602 C   0  0  0  0  0  0
  -15.5946   16.4654  -17.7973 C   0  0  0  0  0  0
  -19.3149   20.6513  -13.3536 N   0  0  0  0  0  0
  -22.7443   23.6038  -10.7577 C   0  0  0  0  0  0
  -23.2619   25.0447  -10.0178 C   0  0  0  0  0  0
  -19.0235   22.5277  -11.9981 H   0  0  0  0  0  0
  -17.3703   19.6968  -14.3053 H   0  0  0  0  0  0
  1  2  1  0  0  0
  2  3  2  0  0  0
  2 27  1  0  0  0
  3  4  1  0  0  0
  4  5  2  0  0  0
  5  6  1  0  0  0
  5 26  1  0  0  0
  6  7  1  0  0  0
  6 28  1  0  0  0
  7  8  2  0  0  0
  7 25  1  0  0  0
  8  9  1  0  0  0
  8 13  1  0  0  0
  9 10  2  0  0  0
 10 11  1  0  0  0
 11 12  2  0  0  0
 12 13  1  0  0  0
 13 14  2  0  0  0
 14 15  1  0  0  0
 15 16  1  0  0  0
 15 25  2  0  0  0
 16 17  1  0  0  0
 16 29  1  0  0  0
 17 18  1  0  0  0
 18 19  1  0  0  0
 19 20  2  0  0  0
 19 24  1  0  0  0
 20 21  1  0  0  0
 21 22  2  0  0  0
 22 23  1  0  0  0
 23 24  2  0  0  0
 26 27  2  0  0  0
M  END
>  <CHROM.0>
-58.81107785,66.53717167,-44.34125545,62.92173640,167.27723966,-176.85581628
-155.84744413,-163.56842373

>  <CHROM.1>
178.68388401,16.64792763,-13.41133528,95.90688266,169.89812843,96.73830266
-20.07343694,20.33194292,-13.79081657,-1.97606922,-0.12730709,-2.48868498

>  <Name>
F2359-0040

>  <RI>
3.03619e+07

>  <Rbt.Current_Directory>
/home/adria/Escritorio/rDock_CMTR_LC/2pxcA_model/inputs_sah

>  <Rbt.Executable>
rbdock ($Id: //depot/dev/client3/rdock/2013.1/src/exe/rbdock.cxx#4 $)

>  <Rbt.Library>
libRbt.so (2013.1, Build901 2013/11/27)

>  <Rbt.Parameter_File>
/home/adria/Escritorio/rDock_2013.1_src/data/scripts/dock.prm

>  <Rbt.Receptor>
sah_rdock.prm

>  <SCORE>
-276.411

>  <SCORE.INTER>
-12.6322

>  <SCORE.INTER.CONST>
1

>  <SCORE.INTER.POLAR>
-0.883996

>  <SCORE.INTER.REPUL>
0

>  <SCORE.INTER.ROT>
6

>  <SCORE.INTER.VDW>
-21.0266

>  <SCORE.INTER.norm>
-0.467858

>  <SCORE.INTRA>
-261.44

>  <SCORE.INTRA.DIHEDRAL>
-6.44277

>  <SCORE.INTRA.DIHEDRAL.0>
11.6174

>  <SCORE.INTRA.POLAR>
0.0348358

>  <SCORE.INTRA.POLAR.0>
-0.0348358

>  <SCORE.INTRA.REPUL>
0

>  <SCORE.INTRA.REPUL.0>
0

>  <SCORE.INTRA.VDW>
-258.337

>  <SCORE.INTRA.VDW.0>
257.335

>  <SCORE.INTRA.norm>
-9.68297

>  <SCORE.RESTR>
0

>  <SCORE.RESTR.CAVITY>
0

>  <SCORE.RESTR.norm>
0

>  <SCORE.SYSTEM>
-2.33917

>  <SCORE.SYSTEM.CONST>
0

>  <SCORE.SYSTEM.DIHEDRAL>
3.26553

>  <SCORE.SYSTEM.POLAR>
-3.68705

>  <SCORE.SYSTEM.VDW>
8.56404

>  <SCORE.SYSTEM.norm>
-0.0866359

>  <SCORE.heavy>
27

>  <SCORE.norm>
-10.2375

$$$$
F2359-0040
  rDOCK(R)          3D
libRbt.so/2013.1/901 2013/11/27
 29 32  0  0  0  0  0  0  0  0999 V2000
  -20.4417   16.0579  -13.8450 F   0  0  0  0  0  0
  -21.3194   17.0178  -13.5370 C   0  0  0  0  0  0
  -20.9692   18.6803  -14.0012 C   0  0  0  0  0  0
  -22.2088   19.9670  -14.0591 C   0  0  0  0  0  0
  -23.9403   19.5267  -13.5617 C   0  0  0  0  0  0
  -24.5272   20.7663  -13.2391 N   0  0  0  0  0  0
  -23.9960   21.9288  -12.7437 C   0  0  0  0  0  0
  -24.6937   22.7938  -11.9958 C   0  0  0  0  0  0
  -26.0222   22.5962  -11.7363 N   0  0  0  0  0  0
  -26.5332   23.4600  -10.8612 C   0  0  0  0  0  0
  -25.7479   24.4596  -10.3229 C   0  0  0  0  0  0
  -24.4398   24.6546  -10.6321 N   0  0  0  0  0  0
  -23.8700   23.8092  -11.4787 C   0  0  0  0  0  0
  -22.5585   23.9766  -11.7425 N   0  0  0  0  0  0
  -22.0078   23.1039  -12.5448 C   0  0  0  0  0  0
  -20.7053   23.1411  -12.9635 N   0  0  0  0  0  0
  -19.9218   22.0371  -13.5469 C   0  0  0  0  0  0
  -19.5897   22.1147  -15.0536 C   0  0  0  0  0  0
  -19.1100   20.7999  -15.6508 C   0  0  0  0  0  0
  -19.2361   20.5328  -17.4102 C   0  0  0  0  0  0
  -18.2186   19.2109  -18.1859 C   0  0  0  0  0  0
  -17.1675   18.0038  -16.8751 C   0  0  0  0  0  0
  -17.2269   18.3582  -15.1243 C   0  0  0  0  0  0
  -18.1163   19.7446  -14.5687 C   0  0  0  0  0  0
  -22.7188   22.1071  -12.9401 N   0  0  0  0  0  0
  -24.0671   17.5627  -13.0093 C   0  0  0  0  0  0
  -22.7841   16.4472  -13.0411 C   0  0  0  0  0  0
  -25.5521   20.7584  -13.1626 H   0  0  0  0  0  0
  -20.2497   24.0159  -12.7789 H   0  0  0  0  0  0
  1  2  1  0  0  0
  2  3  2  0  0  0
  2 27  1  0  0  0
  3  4  1  0  0  0
  4  5  2  0  0  0
  5  6  1  0  0  0
  5 26  1  0  0  0
  6  7  1  0  0  0
  6 28  1  0  0  0
  7  8  2  0  0  0
  7 25  1  0  0  0
  8  9  1  0  0  0
  8 13  1  0  0  0
  9 10  2  0  0  0
 10 11  1  0  0  0
 11 12  2  0  0  0
 12 13  1  0  0  0
 13 14  2  0  0  0
 14 15  1  0  0  0
 15 16  1  0  0  0
 15 25  2  0  0  0
 16 17  1  0  0  0
 16 29  1  0  0  0
 17 18  1  0  0  0
 18 19  1  0  0  0
 19 20  2  0  0  0
 19 24  1  0  0  0
 20 21  1  0  0  0
 21 22  2  0  0  0
 22 23  1  0  0  0
 23 24  2  0  0  0
 26 27  2  0  0  0
M  END
>  <CHROM.0>
171.47478773,64.60595928,72.04419987,62.72136970,168.48255533,-60.10299517
-156.52655151,-166.41925890

>  <CHROM.1>
-29.75171461,-151.47443824,161.93967615,108.50509889,-164.85419524,158.33168953
-21.91015141,20.80747407,-13.50052304,0.66256424,-0.53325592,-3.00225352

>  <Name>
F2359-0040

>  <RI>
3.03619e+07

>  <Rbt.Current_Directory>
/home/adria/Escritorio/rDock_CMTR_LC/2pxcA_model/inputs_sah

>  <Rbt.Executable>
rbdock ($Id: //depot/dev/client3/rdock/2013.1/src/exe/rbdock.cxx#4 $)

>  <Rbt.Library>
libRbt.so (2013.1, Build901 2013/11/27)

>  <Rbt.Parameter_File>
/home/adria/Escritorio/rDock_2013.1_src/data/scripts/dock.prm

>  <Rbt.Receptor>
sah_rdock.prm

>  <SCORE>
-262.183

>  <SCORE.INTER>
-3.70057

>  <SCORE.INTER.CONST>
1

>  <SCORE.INTER.POLAR>
-0.689114

>  <SCORE.INTER.REPUL>
0

>  <SCORE.INTER.ROT>
6

>  <SCORE.INTER.VDW>
-12.7576

>  <SCORE.INTER.norm>
-0.137058

>  <SCORE.INTRA>
-256.407

>  <SCORE.INTRA.DIHEDRAL>
-0.262019

>  <SCORE.INTRA.DIHEDRAL.0>
11.6174

>  <SCORE.INTRA.POLAR>
-0.00217578

>  <SCORE.INTRA.POLAR.0>
-0.0348358

>  <SCORE.INTRA.REPUL>
0

>  <SCORE.INTRA.REPUL.0>
0

>  <SCORE.INTRA.VDW>
-256.269

>  <SCORE.INTRA.VDW.0>
257.335

>  <SCORE.INTRA.norm>
-9.49655

>  <SCORE.RESTR>
0

>  <SCORE.RESTR.CAVITY>
0

>  <SCORE.RESTR.norm>
0

>  <SCORE.SYSTEM>
-2.07527

>  <SCORE.SYSTEM.CONST>
0

>  <SCORE.SYSTEM.DIHEDRAL>
2.93612

>  <SCORE.SYSTEM.POLAR>
-3.65582

>  <SCORE.SYSTEM.VDW>
8.88644

>  <SCORE.SYSTEM.norm>
-0.076862

>  <SCORE.heavy>
27

>  <SCORE.norm>
-9.71047

$$$$
F2359-0040
  rDOCK(R)          3D
libRbt.so/2013.1/901 2013/11/27
 29 32  0  0  0  0  0  0  0  0999 V2000
  -15.0466   12.3521  -20.3194 F   0  0  0  0  0  0
  -15.5404   13.4832  -19.8062 C   0  0  0  0  0  0
  -17.2863   13.6737  -19.6741 C   0  0  0  0  0  0
  -18.0657   14.8980  -18.6304 C   0  0  0  0  0  0
  -16.9690   16.0488  -17.6753 C   0  0  0  0  0  0
  -17.8037   17.1435  -17.3754 N   0  0  0  0  0  0
  -17.5356   18.3830  -16.8551 C   0  0  0  0  0  0
  -16.3424   18.9820  -16.9644 C   0  0  0  0  0  0
  -15.2824   18.3490  -17.5534 N   0  0  0  0  0  0
  -14.2147   19.1278  -17.7172 C   0  0  0  0  0  0
  -14.2301   20.4382  -17.2838 C   0  0  0  0  0  0
  -15.2861   21.0268  -16.6649 N   0  0  0  0  0  0
  -16.3864   20.3075  -16.4975 C   0  0  0  0  0  0
  -17.4488   20.9123  -15.9289 N   0  0  0  0  0  0
  -18.5368   20.1968  -15.8154 C   0  0  0  0  0  0
  -19.6943   20.6242  -15.2231 N   0  0  0  0  0  0
  -19.8914   21.8478  -14.4251 C   0  0  0  0  0  0
  -20.3230   21.6783  -12.9516 C   0  0  0  0  0  0
  -20.9780   22.9138  -12.3517 C   0  0  0  0  0  0
  -20.0935   23.8809  -11.1413 C   0  0  0  0  0  0
  -20.6400   25.6054  -10.8066 C   0  0  0  0  0  0
  -22.3942   26.1859  -11.7369 C   0  0  0  0  0  0
  -23.2062   25.0513  -12.8539 C   0  0  0  0  0  0
  -22.4715   23.5099  -13.1801 C   0  0  0  0  0  0
  -18.5482   19.0198  -16.3349 N   0  0  0  0  0  0
  -14.9971   15.6619  -18.0503 C   0  0  0  0  0  0
  -14.4121   14.4239  -19.0585 C   0  0  0  0  0  0
  -18.8089   16.9312  -17.3428 H   0  0  0  0  0  0
  -20.4539   19.9746  -15.3126 H   0  0  0  0  0  0
  1  2  1  0  0  0
  2  3  2  0  0  0
  2 27  1  0  0  0
  3  4  1  0  0  0
  4  5  2  0  0  0
  5  6  1  0  0  0
  5 26  1  0  0  0
  6  7  1  0  0  0
  6 28  1  0  0  0
  7  8  2  0  0  0
  7 25  1  0  0  0
  8  9  1  0  0  0
  8 13  1  0  0  0
  9 10  2  0  0  0
 10 11  1  0  0  0
 11 12  2  0  0  0
 12 13  1  0  0  0
 13 14  2  0  0  0
 14 15  1  0  0  0
 15 16  1  0  0  0
 15 25  2  0  0  0
 16 17  1  0  0  0
 16 29  1  0  0  0
 17 18  1  0  0  0
 18 19  1  0  0  0
 19 20  2  0  0  0
 19 24  1  0  0  0
 20 21  1  0  0  0
 21 22  2  0  0  0
 22 23  1  0  0  0
 23 24  2  0  0  0
 26 27  2  0  0  0
M  END
>  <CHROM.0>
-63.67104438,-70.43461542,76.42620239,144.62543655,-30.97308090,63.75894639
-159.48517514,-165.12664222

>  <CHROM.1>
-169.77886519,25.32673687,-10.41328642,-118.30154625,-159.12634787,-108.19586998
-17.88569585,19.37775689,-16.08954015,1.09212545,-0.28367549,-2.66624998

>  <Name>
F2359-0040

>  <RI>
3.03619e+07

>  <Rbt.Current_Directory>
/home/adria/Escritorio/rDock_CMTR_LC/2pxcA_model/inputs_sah

>  <Rbt.Executable>
rbdock ($Id: //depot/dev/client3/rdock/2013.1/src/exe/rbdock.cxx#4 $)

>  <Rbt.Library>
libRbt.so (2013.1, Build901 2013/11/27)

>  <Rbt.Parameter_File>
/home/adria/Escritorio/rDock_2013.1_src/data/scripts/dock.prm

>  <Rbt.Receptor>
sah_rdock.prm

>  <SCORE>
-283.637

>  <SCORE.INTER>
-18.6115

>  <SCORE.INTER.CONST>
1

>  <SCORE.INTER.POLAR>
-0.00611283

>  <SCORE.INTER.REPUL>
0

>  <SCORE.INTER.ROT>
6

>  <SCORE.INTER.VDW>
-29.9908

>  <SCORE.INTER.norm>
-0.689316

>  <SCORE.INTRA>
-260.546

>  <SCORE.INTRA.DIHEDRAL>
-4.52788

>  <SCORE.INTRA.DIHEDRAL.0>
11.6174

>  <SCORE.INTRA.POLAR>
0.0348358

>  <SCORE.INTRA.POLAR.0>
-0.0348358

>  <SCORE.INTRA.REPUL>
0

>  <SCORE.INTRA.REPUL.0>
0

>  <SCORE.INTRA.VDW>
-258.4

>  <SCORE.INTRA.VDW.0>
257.335

>  <SCORE.INTRA.norm>
-9.64983

>  <SCORE.RESTR>
0

>  <SCORE.RESTR.CAVITY>
0

>  <SCORE.RESTR.norm>
0

>  <SCORE.SYSTEM>
-4.48041

>  <SCORE.SYSTEM.CONST>
0

>  <SCORE.SYSTEM.DIHEDRAL>
10.526

>  <SCORE.SYSTEM.POLAR>
-4.00209

>  <SCORE.SYSTEM.REPUL>
0.0336362

>  <SCORE.SYSTEM.VDW>
3.6955

>  <SCORE.SYSTEM.norm>
-0.165941

>  <SCORE.heavy>
27

>  <SCORE.norm>
-10.5051

$$$$
F2359-0040
  rDOCK(R)          3D
libRbt.so/2013.1/901 2013/11/27
 29 32  0  0  0  0  0  0  0  0999 V2000
  -22.6586   27.0873   -8.5279 F   0  0  0  0  0  0
  -22.2404   26.1545   -9.3890 C   0  0  0  0  0  0
  -20.5293   26.0714   -9.7981 C   0  0  0  0  0  0
  -19.7686   24.6442  -10.5597 C   0  0  0  0  0  0
  -20.8552   23.1997  -10.9747 C   0  0  0  0  0  0
  -20.1268   22.4967  -11.9547 N   0  0  0  0  0  0
  -20.3545   21.2979  -12.5794 C   0  0  0  0  0  0
  -21.1397   20.3413  -12.0671 C   0  0  0  0  0  0
  -21.7157   20.4813  -10.8342 N   0  0  0  0  0  0
  -22.5816   19.5156  -10.5328 C   0  0  0  0  0  0
  -22.8111   18.4794  -11.4154 C   0  0  0  0  0  0
  -22.1920   18.3471  -12.6170 N   0  0  0  0  0  0
  -21.3382   19.2925  -12.9822 C   0  0  0  0  0  0
  -20.7653   19.1826  -14.1977 N   0  0  0  0  0  0
  -19.9618   20.1499  -14.5544 C   0  0  0  0  0  0
  -19.2557   20.1864  -15.7264 N   0  0  0  0  0  0
  -19.4280   19.3134  -16.9015 C   0  0  0  0  0  0
  -18.3301   19.3520  -17.9877 C   0  0  0  0  0  0
  -17.1126   18.4968  -17.6687 C   0  0  0  0  0  0
  -15.5230   19.2750  -17.4443 C   0  0  0  0  0  0
  -14.1924   18.3489  -16.5746 C   0  0  0  0  0  0
  -14.6217   16.3760  -16.1233 C   0  0  0  0  0  0
  -16.2428   15.7269  -16.5040 C   0  0  0  0  0  0
  -17.4412   16.7841  -17.1885 C   0  0  0  0  0  0
  -19.8534   21.1691  -13.7768 N   0  0  0  0  0  0
  -22.7979   23.5720  -10.4591 C   0  0  0  0  0  0
  -23.3609   24.9872   -9.7031 C   0  0  0  0  0  0
  -19.1597   22.8157  -12.0938 H   0  0  0  0  0  0
  -18.5061   20.8534  -15.7221 H   0  0  0  0  0  0
  1  2  1  0  0  0
  2  3  2  0  0  0
  2 27  1  0  0  0
  3  4  1  0  0  0
  4  5  2  0  0  0
  5  6  1  0  0  0
  5 26  1  0  0  0
  6  7  1  0  0  0
  6 28  1  0  0  0
  7  8  2  0  0  0
  7 25  1  0  0  0
  8  9  1  0  0  0
  8 13  1  0  0  0
  9 10  2  0  0  0
 10 11  1  0  0  0
 11 12  2  0  0  0
 12 13  1  0  0  0
 13 14  2  0  0  0
 14 15  1  0  0  0
 15 16  1  0  0  0
 15 25  2  0  0  0
 16 17  1  0  0  0
 16 29  1  0  0  0
 17 18  1  0  0  0
 18 19  1  0  0  0
 19 20  2  0  0  0
 19 24  1  0  0  0
 20 21  1  0  0  0
 21 22  2  0  0  0
 22 23  1  0  0  0
 23 24  2  0  0  0
 26 27  2  0  0  0
M  END
>  <CHROM.0>
39.25712744,66.01940546,-166.18247252,-62.46097069,167.79426693,-178.91029717
-37.95858528,-161.73248156

>  <CHROM.1>
174.49035242,-21.86688516,12.02810090,-167.70092077,81.74974201,-116.51466990
-19.93243141,20.83859652,-13.25150286,-2.19722055,-0.61646354,-2.73792548

>  <Name>
F2359-0040

>  <RI>
3.03619e+07

>  <Rbt.Current_Directory>
/home/adria/Escritorio/rDock_CMTR_LC/2pxcA_model/inputs_sah

>  <Rbt.Executable>
rbdock ($Id: //depot/dev/client3/rdock/2013.1/src/exe/rbdock.cxx#4 $)

>  <Rbt.Library>
libRbt.so (2013.1, Build901 2013/11/27)

>  <Rbt.Parameter_File>
/home/adria/Escritorio/rDock_2013.1_src/data/scripts/dock.prm

>  <Rbt.Receptor>
sah_rdock.prm

>  <SCORE>
-271.066

>  <SCORE.INTER>
-14.4932

>  <SCORE.INTER.CONST>
1

>  <SCORE.INTER.POLAR>
-0.916515

>  <SCORE.INTER.REPUL>
0

>  <SCORE.INTER.ROT>
6

>  <SCORE.INTER.VDW>
-22.7771

>  <SCORE.INTER.norm>
-0.536786

>  <SCORE.INTRA>
-258.963

>  <SCORE.INTRA.DIHEDRAL>
-0.71016

>  <SCORE.INTRA.DIHEDRAL.0>
11.6174

>  <SCORE.INTRA.POLAR>
0.0348358

>  <SCORE.INTRA.POLAR.0>
-0.0348358

>  <SCORE.INTRA.REPUL>
0

>  <SCORE.INTRA.REPUL.0>
0

>  <SCORE.INTRA.VDW>
-258.727

>  <SCORE.INTRA.VDW.0>
257.335

>  <SCORE.INTRA.norm>
-9.59124

>  <SCORE.RESTR>
0

>  <SCORE.RESTR.CAVITY>
0

>  <SCORE.RESTR.norm>
0

>  <SCORE.SYSTEM>
2.39093

>  <SCORE.SYSTEM.CONST>
0

>  <SCORE.SYSTEM.DIHEDRAL>
4.83743

>  <SCORE.SYSTEM.POLAR>
-3.48241

>  <SCORE.SYSTEM.REPUL>
0.12559

>  <SCORE.SYSTEM.VDW>
11.1845

>  <SCORE.SYSTEM.norm>
0.0885531

>  <SCORE.heavy>
27

>  <SCORE.norm>
-10.0395

$$$$
F2359-0040
  rDOCK(R)          3D
libRbt.so/2013.1/901 2013/11/27
 29 32  0  0  0  0  0  0  0  0999 V2000
  -25.7288   19.3370  -14.0772 F   0  0  0  0  0  0
  -24.5837   19.3644  -14.7661 C   0  0  0  0  0  0
  -23.1132   18.7600  -14.0083 C   0  0  0  0  0  0
  -21.6413   18.3260  -14.9253 C   0  0  0  0  0  0
  -21.6612   18.5693  -16.7637 C   0  0  0  0  0  0
  -20.2977   18.6256  -17.1142 N   0  0  0  0  0  0
  -19.1672   18.8181  -16.3633 C   0  0  0  0  0  0
  -17.9548   18.3910  -16.7400 C   0  0  0  0  0  0
  -17.7835   17.6635  -17.8856 N   0  0  0  0  0  0
  -16.5076   17.4430  -18.1967 C   0  0  0  0  0  0
  -15.4967   17.9082  -17.3799 C   0  0  0  0  0  0
  -15.7007   18.5940  -16.2255 N   0  0  0  0  0  0
  -16.9503   18.8655  -15.8780 C   0  0  0  0  0  0
  -17.1449   19.5906  -14.7582 N   0  0  0  0  0  0
  -18.3833   19.8843  -14.4601 C   0  0  0  0  0  0
  -18.7761   20.5679  -13.3414 N   0  0  0  0  0  0
  -20.1302   21.0536  -13.0198 C   0  0  0  0  0  0
  -20.4642   22.5214  -13.3667 C   0  0  0  0  0  0
  -21.8469   22.9662  -12.9131 C   0  0  0  0  0  0
  -22.2586   24.7021  -12.9125 C   0  0  0  0  0  0
  -24.0297   25.1977  -12.8685 C   0  0  0  0  0  0
  -25.3850   23.6570  -12.6047 C   0  0  0  0  0  0
  -24.7889   21.9736  -12.5323 C   0  0  0  0  0  0
  -23.0917   21.6643  -12.7462 C   0  0  0  0  0  0
  -19.3052   19.5524  -15.2940 N   0  0  0  0  0  0
  -23.4520   19.3368  -17.3821 C   0  0  0  0  0  0
  -24.7805   19.6688  -16.3740 C   0  0  0  0  0  0
  -20.1084   18.7471  -18.1171 H   0  0  0  0  0  0
  -18.0180   20.7989  -12.7259 H   0  0  0  0  0  0
  1  2  1  0  0  0
  2  3  2  0  0  0
  2 27  1  0  0  0
  3  4  1  0  0  0
  4  5  2  0  0  0
  5  6  1  0  0  0
  5 26  1  0  0  0
  6  7  1  0  0  0
  6 28  1  0  0  0
  7  8  2  0  0  0
  7 25  1  0  0  0
  8  9  1  0  0  0
  8 13  1  0  0  0
  9 10  2  0  0  0
 10 11  1  0  0  0
 11 12  2  0  0  0
 12 13  1  0  0  0
 13 14  2  0  0  0
 14 15  1  0  0  0
 15 16  1  0  0  0
 15 25  2  0  0  0
 16 17  1  0  0  0
 16 29  1  0  0  0
 17 18  1  0  0  0
 18 19  1  0  0  0
 19 20  2  0  0  0
 19 24  1  0  0  0
 20 21  1  0  0  0
 21 22  2  0  0  0
 22 23  1  0  0  0
 23 24  2  0  0  0
 26 27  2  0  0  0
M  END
>  <CHROM.0>
179.24192189,-73.37285444,-168.58321011,62.22523617,32.46302734,-60.34017691
-156.28676113,-162.10108831

>  <CHROM.1>
-15.99997338,155.64924669,172.93528070,-95.89910685,-175.93254820,166.82486553
-20.79759367,20.10015306,-14.97783051,2.51844588,0.03032165,0.67957543

>  <Name>
F2359-0040

>  <RI>
3.03619e+07

>  <Rbt.Current_Directory>
/home/adria/Escritorio/rDock_CMTR_LC/2pxcA_model/inputs_sah

>  <Rbt.Executable>
rbdock ($Id: //depot/dev/client3/rdock/2013.1/src/exe/rbdock.cxx#4 $)

>  <Rbt.Library>
libRbt.so (2013.1, Build901 2013/11/27)

>  <Rbt.Parameter_File>
/home/adria/Escritorio/rDock_2013.1_src/data/scripts/dock.prm

>  <Rbt.Receptor>
sah_rdock.prm

>  <SCORE>
-266.47

>  <SCORE.INTER>
-12.4985

>  <SCORE.INTER.CONST>
1

>  <SCORE.INTER.POLAR>
-0.868633

>  <SCORE.INTER.REPUL>
0

>  <SCORE.INTER.ROT>
6

>  <SCORE.INTER.VDW>
-20.9452

>  <SCORE.INTER.norm>
-0.462909

>  <SCORE.INTRA>
-258.585

>  <SCORE.INTRA.DIHEDRAL>
-0.800511

>  <SCORE.INTRA.DIHEDRAL.0>
11.6174

>  <SCORE.INTRA.POLAR>
0.0348358

>  <SCORE.INTRA.POLAR.0>
-0.0348358

>  <SCORE.INTRA.REPUL>
0

>  <SCORE.INTRA.REPUL.0>
0

>  <SCORE.INTRA.VDW>
-258.303

>  <SCORE.INTRA.VDW.0>
257.335

>  <SCORE.INTRA.norm>
-9.5772

>  <SCORE.RESTR>
0

>  <SCORE.RESTR.CAVITY>
0

>  <SCORE.RESTR.norm>
0

>  <SCORE.SYSTEM>
4.61289

>  <SCORE.SYSTEM.CONST>
0

>  <SCORE.SYSTEM.DIHEDRAL>
5.99532

>  <SCORE.SYSTEM.POLAR>
-3.71403

>  <SCORE.SYSTEM.REPUL>
0.0391946

>  <SCORE.SYSTEM.VDW>
14.0469

>  <SCORE.SYSTEM.norm>
0.170848

>  <SCORE.heavy>
27

>  <SCORE.norm>
-9.86927

$$$$
F2359-0040
  rDOCK(R)          3D
libRbt.so/2013.1/901 2013/11/27
 29 32  0  0  0  0  0  0  0  0999 V2000
  -21.9675   26.9411   -9.5329 F   0  0  0  0  0  0
  -21.6103   25.8581  -10.2300 C   0  0  0  0  0  0
  -22.4179   25.5173  -11.7576 C   0  0  0  0  0  0
  -21.7648   24.3950  -12.9863 C   0  0  0  0  0  0
  -20.1762   23.5181  -12.6032 C   0  0  0  0  0  0
  -20.1859   22.4044  -13.4662 N   0  0  0  0  0  0
  -19.7760   21.1080  -13.2916 C   0  0  0  0  0  0
  -20.3538   20.2665  -12.4243 C   0  0  0  0  0  0
  -21.3614   20.6816  -11.5975 N   0  0  0  0  0  0
  -21.9281   19.6961  -10.9039 C   0  0  0  0  0  0
  -21.4741   18.3988  -11.0310 C   0  0  0  0  0  0
  -20.4429   18.0243  -11.8316 N   0  0  0  0  0  0
  -19.8568   18.9589  -12.5658 C   0  0  0  0  0  0
  -18.8677   18.5730  -13.3968 N   0  0  0  0  0  0
  -18.3354   19.5044  -14.1437 C   0  0  0  0  0  0
  -17.2922   19.3108  -15.0082 N   0  0  0  0  0  0
  -16.8018   20.2418  -16.0404 C   0  0  0  0  0  0
  -15.5929   19.7933  -16.8913 C   0  0  0  0  0  0
  -15.8169   18.4930  -17.6491 C   0  0  0  0  0  0
  -14.4153   17.5888  -18.2821 C   0  0  0  0  0  0
  -14.6257   15.8161  -18.7270 C   0  0  0  0  0  0
  -16.5631   15.0954  -18.6441 C   0  0  0  0  0  0
  -17.8705   16.1714  -18.0718 C   0  0  0  0  0  0
  -17.4752   17.7786  -17.5403 C   0  0  0  0  0  0
  -18.8504   20.6828  -14.1064 N   0  0  0  0  0  0
  -19.4802   24.0374  -10.7527 C   0  0  0  0  0  0
  -20.2126   25.1592   -9.7055 C   0  0  0  0  0  0
  -20.3317   22.6222  -14.4600 H   0  0  0  0  0  0
  -16.8815   18.3975  -14.9427 H   0  0  0  0  0  0
  1  2  1  0  0  0
  2  3  2  0  0  0
  2 27  1  0  0  0
  3  4  1  0  0  0
  4  5  2  0  0  0
  5  6  1  0  0  0
  5 26  1  0  0  0
  6  7  1  0  0  0
  6 28  1  0  0  0
  7  8  2  0  0  0
  7 25  1  0  0  0
  8  9  1  0  0  0
  8 13  1  0  0  0
  9 10  2  0  0  0
 10 11  1  0  0  0
 11 12  2  0  0  0
 12 13  1  0  0  0
 13 14  2  0  0  0
 14 15  1  0  0  0
 15 16  1  0  0  0
 15 25  2  0  0  0
 16 17  1  0  0  0
 16 29  1  0  0  0
 17 18  1  0  0  0
 18 19  1  0  0  0
 19 20  2  0  0  0
 19 24  1  0  0  0
 20 21  1  0  0  0
 21 22  2  0  0  0
 22 23  1  0  0  0
 23 24  2  0  0  0
 26 27  2  0  0  0
M  END
>  <CHROM.0>
-174.14746674,68.54087131,-123.74095154,-57.35381511,-29.98729438,-56.58607398
83.97127405,-165.59283722

>  <CHROM.1>
-141.88168949,65.07800237,168.38840044,179.61728307,58.05461014,-162.22305286
-19.12227328,20.60190971,-13.77118841,-2.32666722,-0.83525518,-2.99983730

>  <Name>
F2359-0040

>  <RI>
3.03619e+07

>  <Rbt.Current_Directory>
/home/adria/Escritorio/rDock_CMTR_LC/2pxcA_model/inputs_sah

>  <Rbt.Executable>
rbdock ($Id: //depot/dev/client3/rdock/2013.1/src/exe/rbdock.cxx#4 $)

>  <Rbt.Library>
libRbt.so (2013.1, Build901 2013/11/27)

>  <Rbt.Parameter_File>
/home/adria/Escritorio/rDock_2013.1_src/data/scripts/dock.prm

>  <Rbt.Receptor>
sah_rdock.prm

>  <SCORE>
-280.733

>  <SCORE.INTER>
-18.8061

>  <SCORE.INTER.CONST>
1

>  <SCORE.INTER.POLAR>
-0.378478

>  <SCORE.INTER.REPUL>
0

>  <SCORE.INTER.ROT>
6

>  <SCORE.INTER.VDW>
-28.9193

>  <SCORE.INTER.norm>
-0.696522

>  <SCORE.INTRA>
-256.24

>  <SCORE.INTRA.DIHEDRAL>
3.94635

>  <SCORE.INTRA.DIHEDRAL.0>
11.6174

>  <SCORE.INTRA.POLAR>
0.0348358

>  <SCORE.INTRA.POLAR.0>
-0.0348358

>  <SCORE.INTRA.REPUL>
0

>  <SCORE.INTRA.REPUL.0>
0

>  <SCORE.INTRA.VDW>
-258.332

>  <SCORE.INTRA.VDW.0>
257.335

>  <SCORE.INTRA.norm>
-9.49037

>  <SCORE.RESTR>
0

>  <SCORE.RESTR.CAVITY>
0

>  <SCORE.RESTR.norm>
0

>  <SCORE.SYSTEM>
-5.68681

>  <SCORE.SYSTEM.CONST>
0

>  <SCORE.SYSTEM.DIHEDRAL>
9.29129

>  <SCORE.SYSTEM.POLAR>
-4.15622

>  <SCORE.SYSTEM.VDW>
3.7987

>  <SCORE.SYSTEM.norm>
-0.210623

>  <SCORE.heavy>
27

>  <SCORE.norm>
-10.3975

$$$$
F2359-0040
  rDOCK(R)          3D
libRbt.so/2013.1/901 2013/11/27
 29 32  0  0  0  0  0  0  0  0999 V2000
  -26.3060   24.6735  -10.6227 F   0  0  0  0  0  0
  -25.0926   24.2371  -10.9744 C   0  0  0  0  0  0
  -24.6869   24.1181  -12.6842 C   0  0  0  0  0  0
  -23.0103   23.9858  -13.2901 C   0  0  0  0  0  0
  -21.6390   23.9289  -12.0429 C   0  0  0  0  0  0
  -20.5645   23.3479  -12.7450 N   0  0  0  0  0  0
  -20.4568   22.1744  -13.4452 C   0  0  0  0  0  0
  -21.3962   21.2197  -13.4256 C   0  0  0  0  0  0
  -22.5070   21.3338  -12.6354 N   0  0  0  0  0  0
  -23.4119   20.3783  -12.8391 C   0  0  0  0  0  0
  -23.1773   19.3753  -13.7579 C   0  0  0  0  0  0
  -22.0446   19.2669  -14.4993 N   0  0  0  0  0  0
  -21.1187   20.2043  -14.3578 C   0  0  0  0  0  0
  -20.0190   20.1198  -15.1333 N   0  0  0  0  0  0
  -19.1409   21.0799  -15.0084 C   0  0  0  0  0  0
  -17.9467   21.1374  -15.6746 N   0  0  0  0  0  0
  -17.1104   20.0044  -16.1102 C   0  0  0  0  0  0
  -17.5570   19.2290  -17.3694 C   0  0  0  0  0  0
  -16.6269   18.0889  -17.7574 C   0  0  0  0  0  0
  -14.9522   18.0691  -17.1425 C   0  0  0  0  0  0
  -14.0103   16.4892  -17.1733 C   0  0  0  0  0  0
  -14.9396   14.9106  -18.1349 C   0  0  0  0  0  0
  -16.5922   15.1323  -18.7786 C   0  0  0  0  0  0
  -17.4041   16.6489  -18.5284 C   0  0  0  0  0  0
  -19.4286   22.0719  -14.2413 N   0  0  0  0  0  0
  -22.3762   24.0194  -10.1384 C   0  0  0  0  0  0
  -24.0182   24.1777   -9.7258 C   0  0  0  0  0  0
  -19.6411   23.7525  -12.5447 H   0  0  0  0  0  0
  -17.6065   22.0720  -15.8076 H   0  0  0  0  0  0
  1  2  1  0  0  0
  2  3  2  0  0  0
  2 27  1  0  0  0
  3  4  1  0  0  0
  4  5  2  0  0  0
  5  6  1  0  0  0
  5 26  1  0  0  0
  6  7  1  0  0  0
  6 28  1  0  0  0
  7  8  2  0  0  0
  7 25  1  0  0  0
  8  9  1  0  0  0
  8 13  1  0  0  0
  9 10  2  0  0  0
 10 11  1  0  0  0
 11 12  2  0  0  0
 12 13  1  0  0  0
 13 14  2  0  0  0
 14 15  1  0  0  0
 15 16  1  0  0  0
 15 25  2  0  0  0
 16 17  1  0  0  0
 16 29  1  0  0  0
 17 18  1  0  0  0
 18 19  1  0  0  0
 19 20  2  0  0  0
 19 24  1  0  0  0
 20 21  1  0  0  0
 21 22  2  0  0  0
 22 23  1  0  0  0
 23 24  2  0  0  0
 26 27  2  0  0  0
M  END
>  <CHROM.0>
-176.34602822,-70.89001847,111.60531424,-61.56118039,-30.93004118,-178.44220831
-156.48732416,-163.80928879

>  <CHROM.1>
-54.42844844,-9.92777392,-31.33181390,77.11575936,179.21692396,-19.60738572
-20.34574741,20.78266980,-14.33536720,2.32730136,0.28157280,0.49861482

>  <Name>
F2359-0040

>  <RI>
3.03619e+07

>  <Rbt.Current_Directory>
/home/adria/Escritorio/rDock_CMTR_LC/2pxcA_model/inputs_sah

>  <Rbt.Executable>
rbdock ($Id: //depot/dev/client3/rdock/2013.1/src/exe/rbdock.cxx#4 $)

>  <Rbt.Library>
libRbt.so (2013.1, Build901 2013/11/27)

>  <Rbt.Parameter_File>
/home/adria/Escritorio/rDock_2013.1_src/data/scripts/dock.prm

>  <Rbt.Receptor>
sah_rdock.prm

>  <SCORE>
-276.798

>  <SCORE.INTER>
-13.6218

>  <SCORE.INTER.CONST>
1

>  <SCORE.INTER.POLAR>
-0.510087

>  <SCORE.INTER.REPUL>
0.00218542

>  <SCORE.INTER.ROT>
6

>  <SCORE.INTER.VDW>
-23.2984

>  <SCORE.INTER.norm>
-0.504511

>  <SCORE.INTRA>
-256.179

>  <SCORE.INTRA.DIHEDRAL>
5.0145

>  <SCORE.INTRA.DIHEDRAL.0>
11.6174

>  <SCORE.INTRA.POLAR>
0.0348358

>  <SCORE.INTRA.POLAR.0>
-0.0348358

>  <SCORE.INTRA.REPUL>
0

>  <SCORE.INTRA.REPUL.0>
0

>  <SCORE.INTRA.VDW>
-258.804

>  <SCORE.INTRA.VDW.0>
257.335

>  <SCORE.INTRA.norm>
-9.4881

>  <SCORE.RESTR>
0

>  <SCORE.RESTR.CAVITY>
0

>  <SCORE.RESTR.norm>
0

>  <SCORE.SYSTEM>
-6.99787

>  <SCORE.SYSTEM.CONST>
0

>  <SCORE.SYSTEM.DIHEDRAL>
9.08045

>  <SCORE.SYSTEM.POLAR>
-4.62389

>  <SCORE.SYSTEM.REPUL>
0.0345519

>  <SCORE.SYSTEM.VDW>
4.01039

>  <SCORE.SYSTEM.norm>
-0.25918

>  <SCORE.heavy>
27

>  <SCORE.norm>
-10.2518

$$$$
F2359-0040
  rDOCK(R)          3D
libRbt.so/2013.1/901 2013/11/27
 29 32  0  0  0  0  0  0  0  0999 V2000
  -14.3353   16.9158  -19.4459 F   0  0  0  0  0  0
  -15.1063   17.4984  -18.5225 C   0  0  0  0  0  0
  -14.5035   18.9202  -17.6757 C   0  0  0  0  0  0
  -15.5563   20.0431  -16.7667 C   0  0  0  0  0  0
  -17.3683   19.6574  -16.6823 C   0  0  0  0  0  0
  -17.8174   20.3775  -15.5577 N   0  0  0  0  0  0
  -18.7733   20.0998  -14.6153 C   0  0  0  0  0  0
  -19.3533   18.8988  -14.4907 C   0  0  0  0  0  0
  -19.0689   17.8804  -15.3585 N   0  0  0  0  0  0
  -19.6103   16.7136  -15.0138 C   0  0  0  0  0  0
  -20.4010   16.6135  -13.8868 C   0  0  0  0  0  0
  -20.6982   17.6542  -13.0663 N   0  0  0  0  0  0
  -20.1661   18.8354  -13.3452 C   0  0  0  0  0  0
  -20.4230   19.8529  -12.4987 N   0  0  0  0  0  0
  -19.8509   20.9966  -12.7694 C   0  0  0  0  0  0
  -20.0323   22.1491  -12.0538 N   0  0  0  0  0  0
  -21.2246   22.5444  -11.2826 C   0  0  0  0  0  0
  -22.5964   22.0319  -11.7746 C   0  0  0  0  0  0
  -23.7443   22.3180  -10.8176 C   0  0  0  0  0  0
  -23.6714   21.7033   -9.1444 C   0  0  0  0  0  0
  -24.7644   22.4558   -7.8703 C   0  0  0  0  0  0
  -26.1478   23.8248   -8.5718 C   0  0  0  0  0  0
  -26.1431   24.2595  -10.3054 C   0  0  0  0  0  0
  -24.9376   23.5688  -11.3503 C   0  0  0  0  0  0
  -19.0191   21.0442  -13.7497 N   0  0  0  0  0  0
  -17.7974   17.9301  -17.6878 C   0  0  0  0  0  0
  -16.6715   16.9820  -18.5393 C   0  0  0  0  0  0
  -17.5412   21.3673  -15.5331 H   0  0  0  0  0  0
  -19.2717   22.7981  -12.1395 H   0  0  0  0  0  0
  1  2  1  0  0  0
  2  3  2  0  0  0
  2 27  1  0  0  0
  3  4  1  0  0  0
  4  5  2  0  0  0
  5  6  1  0  0  0
  5 26  1  0  0  0
  6  7  1  0  0  0
  6 28  1  0  0  0
  7  8  2  0  0  0
  7 25  1  0  0  0
  8  9  1  0  0  0
  8 13  1  0  0  0
  9 10  2  0  0  0
 10 11  1  0  0  0
 11 12  2  0  0  0
 12 13  1  0  0  0
 13 14  2  0  0  0
 14 15  1  0  0  0
 15 16  1  0  0  0
 15 25  2  0  0  0
 16 17  1  0  0  0
 16 29  1  0  0  0
 17 18  1  0  0  0
 18 19  1  0  0  0
 19 20  2  0  0  0
 19 24  1  0  0  0
 20 21  1  0  0  0
 21 22  2  0  0  0
 22 23  1  0  0  0
 23 24  2  0  0  0
 26 27  2  0  0  0
M  END
>  <CHROM.0>
-59.21415834,-74.94299150,-167.19479818,-56.60128098,168.27322561,60.45794932
-36.78237601,-164.04634657

>  <CHROM.1>
-145.23510781,11.06419974,-28.50566308,-30.24862612,171.74727531,-57.89737496
-19.90761481,20.03909937,-13.87554847,-0.55404699,0.67068544,0.21819711

>  <Name>
F2359-0040

>  <RI>
3.03619e+07

>  <Rbt.Current_Directory>
/home/adria/Escritorio/rDock_CMTR_LC/2pxcA_model/inputs_sah

>  <Rbt.Executable>
rbdock ($Id: //depot/dev/client3/rdock/2013.1/src/exe/rbdock.cxx#4 $)

>  <Rbt.Library>
libRbt.so (2013.1, Build901 2013/11/27)

>  <Rbt.Parameter_File>
/home/adria/Escritorio/rDock_2013.1_src/data/scripts/dock.prm

>  <Rbt.Receptor>
sah_rdock.prm

>  <SCORE>
-275.322

>  <SCORE.INTER>
-13.5881

>  <SCORE.INTER.CONST>
1

>  <SCORE.INTER.POLAR>
-0.953695

>  <SCORE.INTER.REPUL>
0

>  <SCORE.INTER.ROT>
6

>  <SCORE.INTER.VDW>
-21.7455

>  <SCORE.INTER.norm>
-0.503263

>  <SCORE.INTRA>
-259.377

>  <SCORE.INTRA.DIHEDRAL>
-2.66163

>  <SCORE.INTRA.DIHEDRAL.0>
11.6174

>  <SCORE.INTRA.POLAR>
0.0348358

>  <SCORE.INTRA.POLAR.0>
-0.0348358

>  <SCORE.INTRA.REPUL>
0

>  <SCORE.INTRA.REPUL.0>
0

>  <SCORE.INTRA.VDW>
-258.165

>  <SCORE.INTRA.VDW.0>
257.335

>  <SCORE.INTRA.norm>
-9.60656

>  <SCORE.RESTR>
0

>  <SCORE.RESTR.CAVITY>
0

>  <SCORE.RESTR.norm>
0

>  <SCORE.SYSTEM>
-2.35711

>  <SCORE.SYSTEM.CONST>
0

>  <SCORE.SYSTEM.DIHEDRAL>
3.69136

>  <SCORE.SYSTEM.POLAR>
-3.9324

>  <SCORE.SYSTEM.REPUL>
0.0418191

>  <SCORE.SYSTEM.VDW>
8.95827

>  <SCORE.SYSTEM.norm>
-0.0873002

>  <SCORE.heavy>
27

>  <SCORE.norm>
-10.1971

$$$$
F2359-0040
  rDOCK(R)          3D
libRbt.so/2013.1/901 2013/11/27
 29 32  0  0  0  0  0  0  0  0999 V2000
  -25.9323   24.7202  -10.4831 F   0  0  0  0  0  0
  -24.8895   24.1354  -11.0806 C   0  0  0  0  0  0
  -23.9764   25.0372  -12.2868 C   0  0  0  0  0  0
  -22.3382   24.5719  -12.8304 C   0  0  0  0  0  0
  -21.5895   23.0349  -12.1117 C   0  0  0  0  0  0
  -20.5940   22.6747  -13.0414 N   0  0  0  0  0  0
  -20.0015   21.4722  -13.3276 C   0  0  0  0  0  0
  -20.2922   20.3380  -12.6771 C   0  0  0  0  0  0
  -21.1639   20.3285  -11.6229 N   0  0  0  0  0  0
  -21.4596   19.1076  -11.1810 C   0  0  0  0  0  0
  -20.8825   17.9945  -11.7584 C   0  0  0  0  0  0
  -19.9879   18.0394  -12.7792 N   0  0  0  0  0  0
  -19.6748   19.2266  -13.2776 C   0  0  0  0  0  0
  -18.8256   19.2617  -14.3243 N   0  0  0  0  0  0
  -18.5669   20.4400  -14.8275 C   0  0  0  0  0  0
  -17.6952   20.6756  -15.8561 N   0  0  0  0  0  0
  -17.1379   19.6896  -16.7994 C   0  0  0  0  0  0
  -16.6272   18.3529  -16.2173 C   0  0  0  0  0  0
  -16.3304   17.2927  -17.2677 C   0  0  0  0  0  0
  -14.6568   16.7161  -17.4899 C   0  0  0  0  0  0
  -14.3724   15.1194  -18.3583 C   0  0  0  0  0  0
  -16.0500   14.2419  -19.1923 C   0  0  0  0  0  0
  -17.6467   15.0076  -18.9503 C   0  0  0  0  0  0
  -17.7620   16.4379  -17.9690 C   0  0  0  0  0  0
  -19.2062   21.4546  -14.3614 N   0  0  0  0  0  0
  -22.8707   22.1439  -10.7914 C   0  0  0  0  0  0
  -24.4025   22.7385  -10.3538 C   0  0  0  0  0  0
  -20.0650   23.4596  -13.4420 H   0  0  0  0  0  0
  -17.3758   21.6259  -15.9011 H   0  0  0  0  0  0
  1  2  1  0  0  0
  2  3  2  0  0  0
  2 27  1  0  0  0
  3  4  1  0  0  0
  4  5  2  0  0  0
  5  6  1  0  0  0
  5 26  1  0  0  0
  6  7  1  0  0  0
  6 28  1  0  0  0
  7  8  2  0  0  0
  7 25  1  0  0  0
  8  9  1  0  0  0
  8 13  1  0  0  0
  9 10  2  0  0  0
 10 11  1  0  0  0
 11 12  2  0  0  0
 12 13  1  0  0  0
 13 14  2  0  0  0
 14 15  1  0  0  0
 15 16  1  0  0  0
 15 25  2  0  0  0
 16 17  1  0  0  0
 16 29  1  0  0  0
 17 18  1  0  0  0
 18 19  1  0  0  0
 19 20  2  0  0  0
 19 24  1  0  0  0
 20 21  1  0  0  0
 21 22  2  0  0  0
 22 23  1  0  0  0
 23 24  2  0  0  0
 26 27  2  0  0  0
M  END
>  <CHROM.0>
177.96038949,-76.58217448,-10.87432171,-60.09315355,168.07449915,178.69043643
-156.89419695,-168.69887009

>  <CHROM.1>
-155.86439702,-1.54512401,15.91962071,-44.55553385,168.41287124,115.48284748
-19.88008599,20.08626921,-14.07969899,2.66815407,0.80976235,-0.21226091

>  <Name>
F2359-0040

>  <RI>
3.03619e+07

>  <Rbt.Current_Directory>
/home/adria/Escritorio/rDock_CMTR_LC/2pxcA_model/inputs_sah

>  <Rbt.Executable>
rbdock ($Id: //depot/dev/client3/rdock/2013.1/src/exe/rbdock.cxx#4 $)

>  <Rbt.Library>
libRbt.so (2013.1, Build901 2013/11/27)

>  <Rbt.Parameter_File>
/home/adria/Escritorio/rDock_2013.1_src/data/scripts/dock.prm

>  <Rbt.Receptor>
sah_rdock.prm

>  <SCORE>
-277.92

>  <SCORE.INTER>
-16.1009

>  <SCORE.INTER.CONST>
1

>  <SCORE.INTER.POLAR>
-0.804998

>  <SCORE.INTER.REPUL>
0

>  <SCORE.INTER.ROT>
6

>  <SCORE.INTER.VDW>
-24.7639

>  <SCORE.INTER.norm>
-0.596328

>  <SCORE.INTRA>
-259.802

>  <SCORE.INTRA.DIHEDRAL>
-4.19288

>  <SCORE.INTRA.DIHEDRAL.0>
11.6174

>  <SCORE.INTRA.POLAR>
0.0348358

>  <SCORE.INTRA.POLAR.0>
-0.0348358

>  <SCORE.INTRA.REPUL>
0

>  <SCORE.INTRA.REPUL.0>
0

>  <SCORE.INTRA.VDW>
-257.824

>  <SCORE.INTRA.VDW.0>
257.335

>  <SCORE.INTRA.norm>
-9.6223

>  <SCORE.RESTR>
0

>  <SCORE.RESTR.CAVITY>
0

>  <SCORE.RESTR.norm>
0

>  <SCORE.SYSTEM>
-2.01729

>  <SCORE.SYSTEM.CONST>
0

>  <SCORE.SYSTEM.DIHEDRAL>
6.64233

>  <SCORE.SYSTEM.POLAR>
-4.55403

>  <SCORE.SYSTEM.REPUL>
0.0442953

>  <SCORE.SYSTEM.VDW>
9.92377

>  <SCORE.SYSTEM.norm>
-0.0747143

>  <SCORE.heavy>
27

>  <SCORE.norm>
-10.2933

$$$$
