F6436-1059
  rDOCK(R)          3D
libRbt.so/2013.1/901 2013/11/27
 25 26  0  0  0  0  0  0  0  0999 V2000
  -26.8625   22.6389   -9.1157 C   0  0  0  0  0  0
  -25.9270   23.6625   -9.6037 N   0  0  0  0  0  0
  -24.9409   24.0837   -8.8317 N   0  0  0  0  0  0
  -23.9633   24.5818   -9.6298 C   0  0  0  0  0  0
  -22.6377   24.5973   -8.9050 C   0  0  0  0  0  0
  -24.4661   24.8156  -11.0220 C   0  0  0  0  0  0
  -25.8281   24.0177  -10.9308 C   0  0  0  0  0  0
  -27.0615   23.1642  -11.7504 C   0  0  0  0  0  0
  -23.3096   25.5796  -12.6073 S   0  0  0  0  0  0
  -24.3052   25.7828  -13.6985 O   0  0  0  0  0  0
  -22.5422   26.9775  -12.2845 O   0  0  0  0  0  0
  -21.9971   24.9054  -13.3097 N   0  0  0  0  0  0
  -21.7773   23.6109  -12.6529 C   0  0  0  0  0  0
  -20.7925   22.8324  -13.5460 C   0  0  0  0  0  0
  -20.1847   21.2054  -12.9094 C   0  0  0  0  0  0
  -19.6817   21.4777  -11.6154 O   0  0  0  0  0  0
  -20.5123   19.4445  -13.2991 C   0  0  0  0  0  0
  -21.4647   18.3736  -13.0486 C   0  0  0  0  0  0
  -22.4029   17.8729  -11.9844 C   0  0  0  0  0  0
  -21.2203   17.2724  -13.9374 O   0  0  0  0  0  0
  -19.9470   17.4256  -14.3698 C   0  0  0  0  0  0
  -19.0250   16.4676  -15.0392 C   0  0  0  0  0  0
  -19.5373   18.4750  -13.6821 C   0  0  0  0  0  0
  -21.1862   25.5039  -13.0467 H   0  0  0  0  0  0
  -18.7936   21.8172  -11.7628 H   0  0  0  0  0  0
  1  2  1  0  0  0
  2  3  1  0  0  0
  2  7  1  0  0  0
  3  4  2  0  0  0
  4  5  1  0  0  0
  4  6  1  0  0  0
  6  7  2  0  0  0
  6  9  1  0  0  0
  7  8  1  0  0  0
  9 10  2  0  0  0
  9 11  2  0  0  0
  9 12  1  0  0  0
 12 13  1  0  0  0
 12 24  1  0  0  0
 13 14  1  0  0  0
 14 15  1  0  0  0
 15 16  1  0  0  0
 15 17  1  0  0  0
 16 25  1  0  0  0
 17 18  2  0  0  0
 17 23  1  0  0  0
 18 19  1  0  0  0
 18 20  1  0  0  0
 20 21  1  0  0  0
 21 22  1  0  0  0
 21 23  2  0  0  0
M  END
>  <CHROM.0>
-158.03683756,63.84312388,-44.14507093,-60.33562910,168.34179291,-177.26886424
81.96698491,-158.38180069

>  <CHROM.1>
-172.88547649,1.77979997,165.57709153,174.47225455,-52.79959872,-82.17939433
-80.68349689,-22.65804048,22.36984521,-12.10910845,2.25226381,0.61800269
-0.05099115

>  <Name>
F6436-1059

>  <RI>
3.76119e+07

>  <Rbt.Current_Directory>
/home/adria/Escritorio/rDock_CMTR_LC/2pxcA_model/inputs_sah

>  <Rbt.Executable>
rbdock ($Id: //depot/dev/client3/rdock/2013.1/src/exe/rbdock.cxx#4 $)

>  <Rbt.Library>
libRbt.so (2013.1, Build901 2013/11/27)

>  <Rbt.Parameter_File>
/home/adria/Escritorio/rDock_2013.1_src/data/scripts/dock.prm

>  <Rbt.Receptor>
sah_rdock.prm

>  <SCORE>
-66.7313

>  <SCORE.INTER>
-25.0509

>  <SCORE.INTER.CONST>
1

>  <SCORE.INTER.POLAR>
-4.29873

>  <SCORE.INTER.REPUL>
0.0462872

>  <SCORE.INTER.ROT>
6

>  <SCORE.INTER.VDW>
-22.0666

>  <SCORE.INTER.norm>
-1.08917

>  <SCORE.INTRA>
-41.1939

>  <SCORE.INTRA.DIHEDRAL>
-0.763151

>  <SCORE.INTRA.DIHEDRAL.0>
11.5557

>  <SCORE.INTRA.POLAR>
0

>  <SCORE.INTRA.POLAR.0>
0

>  <SCORE.INTRA.REPUL>
0

>  <SCORE.INTRA.REPUL.0>
0

>  <SCORE.INTRA.VDW>
-40.8123

>  <SCORE.INTRA.VDW.0>
38.632

>  <SCORE.INTRA.norm>
-1.79104

>  <SCORE.RESTR>
0

>  <SCORE.RESTR.CAVITY>
0

>  <SCORE.RESTR.norm>
0

>  <SCORE.SYSTEM>
-0.486549

>  <SCORE.SYSTEM.CONST>
0

>  <SCORE.SYSTEM.DIHEDRAL>
5.17359

>  <SCORE.SYSTEM.POLAR>
-3.54986

>  <SCORE.SYSTEM.VDW>
8.99616

>  <SCORE.SYSTEM.norm>
-0.0211543

>  <SCORE.heavy>
23

>  <SCORE.norm>
-2.90136

$$$$
F6436-1059
  rDOCK(R)          3D
libRbt.so/2013.1/901 2013/11/27
 25 26  0  0  0  0  0  0  0  0999 V2000
  -15.9224   12.9943  -15.6470 C   0  0  0  0  0  0
  -16.1294   14.4476  -15.7245 N   0  0  0  0  0  0
  -15.0923   15.2652  -15.7658 N   0  0  0  0  0  0
  -15.4924   16.4255  -16.3441 C   0  0  0  0  0  0
  -14.3074   17.1859  -16.8923 C   0  0  0  0  0  0
  -16.9871   16.5184  -16.3964 C   0  0  0  0  0  0
  -17.3410   15.0174  -16.0479 C   0  0  0  0  0  0
  -18.4616   13.7318  -16.1627 C   0  0  0  0  0  0
  -18.0653   18.1366  -17.2046 S   0  0  0  0  0  0
  -17.6547   18.1477  -18.6380 O   0  0  0  0  0  0
  -19.6831   18.0090  -17.0885 O   0  0  0  0  0  0
  -18.0532   19.6963  -16.7167 N   0  0  0  0  0  0
  -17.4199   19.7258  -15.3924 C   0  0  0  0  0  0
  -18.5452   20.0095  -14.3792 C   0  0  0  0  0  0
  -19.8792   18.7373  -14.2250 C   0  0  0  0  0  0
  -19.4808   17.9105  -13.1482 O   0  0  0  0  0  0
  -21.6360   18.6173  -14.7338 C   0  0  0  0  0  0
  -22.9116   18.0510  -14.3230 C   0  0  0  0  0  0
  -23.4801   16.8597  -13.6010 C   0  0  0  0  0  0
  -23.9791   18.6106  -15.1039 O   0  0  0  0  0  0
  -23.3954   19.1104  -16.2182 C   0  0  0  0  0  0
  -23.9823   19.5209  -17.5231 C   0  0  0  0  0  0
  -22.1347   18.7512  -16.0644 C   0  0  0  0  0  0
  -19.0490   19.9622  -16.5664 H   0  0  0  0  0  0
  -20.2014   17.9687  -12.5134 H   0  0  0  0  0  0
  1  2  1  0  0  0
  2  3  1  0  0  0
  2  7  1  0  0  0
  3  4  2  0  0  0
  4  5  1  0  0  0
  4  6  1  0  0  0
  6  7  2  0  0  0
  6  9  1  0  0  0
  7  8  1  0  0  0
  9 10  2  0  0  0
  9 11  2  0  0  0
  9 12  1  0  0  0
 12 13  1  0  0  0
 12 24  1  0  0  0
 13 14  1  0  0  0
 14 15  1  0  0  0
 15 16  1  0  0  0
 15 17  1  0  0  0
 16 25  1  0  0  0
 17 18  2  0  0  0
 17 23  1  0  0  0
 18 19  1  0  0  0
 18 20  1  0  0  0
 20 21  1  0  0  0
 21 22  1  0  0  0
 21 23  2  0  0  0
M  END
>  <CHROM.0>
-59.34755388,-167.69303714,-4.67456652,64.37163612,-30.56881724,62.35592214
81.93678250,-160.63976526

>  <CHROM.1>
62.02305231,-14.26428282,-108.06057721,63.74782170,94.53553245,121.42812586
-146.90532883,-19.07648280,17.49484671,-15.87941282,0.33642556,-0.28006047
2.77890324

>  <Name>
F6436-1059

>  <RI>
3.76119e+07

>  <Rbt.Current_Directory>
/home/adria/Escritorio/rDock_CMTR_LC/2pxcA_model/inputs_sah

>  <Rbt.Executable>
rbdock ($Id: //depot/dev/client3/rdock/2013.1/src/exe/rbdock.cxx#4 $)

>  <Rbt.Library>
libRbt.so (2013.1, Build901 2013/11/27)

>  <Rbt.Parameter_File>
/home/adria/Escritorio/rDock_2013.1_src/data/scripts/dock.prm

>  <Rbt.Receptor>
sah_rdock.prm

>  <SCORE>
-53.6693

>  <SCORE.INTER>
-8.65832

>  <SCORE.INTER.CONST>
1

>  <SCORE.INTER.POLAR>
-0.824621

>  <SCORE.INTER.REPUL>
0.0589983

>  <SCORE.INTER.ROT>
6

>  <SCORE.INTER.VDW>
-17.5496

>  <SCORE.INTER.norm>
-0.376449

>  <SCORE.INTRA>
-39.089

>  <SCORE.INTRA.DIHEDRAL>
0.721556

>  <SCORE.INTRA.DIHEDRAL.0>
11.5557

>  <SCORE.INTRA.POLAR>
0

>  <SCORE.INTRA.POLAR.0>
0

>  <SCORE.INTRA.REPUL>
0

>  <SCORE.INTRA.REPUL.0>
0

>  <SCORE.INTRA.VDW>
-39.4498

>  <SCORE.INTRA.VDW.0>
38.632

>  <SCORE.INTRA.norm>
-1.69952

>  <SCORE.RESTR>
0

>  <SCORE.RESTR.CAVITY>
0

>  <SCORE.RESTR.norm>
0

>  <SCORE.SYSTEM>
-5.9219

>  <SCORE.SYSTEM.CONST>
0

>  <SCORE.SYSTEM.DIHEDRAL>
9.46095

>  <SCORE.SYSTEM.POLAR>
-4.22843

>  <SCORE.SYSTEM.VDW>
3.72427

>  <SCORE.SYSTEM.norm>
-0.257474

>  <SCORE.heavy>
23

>  <SCORE.norm>
-2.33345

$$$$
F6436-1059
  rDOCK(R)          3D
libRbt.so/2013.1/901 2013/11/27
 25 26  0  0  0  0  0  0  0  0999 V2000
  -26.6785   22.7157   -8.8576 C   0  0  0  0  0  0
  -25.7552   23.7408   -9.3654 N   0  0  0  0  0  0
  -24.7097   24.1085   -8.6461 N   0  0  0  0  0  0
  -23.7775   24.6213   -9.4880 C   0  0  0  0  0  0
  -22.4057   24.5791   -8.8560 C   0  0  0  0  0  0
  -24.3682   24.9252  -10.8312 C   0  0  0  0  0  0
  -25.7386   24.1512  -10.6802 C   0  0  0  0  0  0
  -27.0439   23.3587  -11.4480 C   0  0  0  0  0  0
  -23.3049   25.7343  -12.4589 S   0  0  0  0  0  0
  -24.3696   26.0217  -13.4623 O   0  0  0  0  0  0
  -22.4704   27.0908  -12.1265 O   0  0  0  0  0  0
  -22.0696   25.0582  -13.2883 N   0  0  0  0  0  0
  -21.9857   23.6553  -12.8637 C   0  0  0  0  0  0
  -20.6129   23.1400  -13.3362 C   0  0  0  0  0  0
  -20.2939   21.3251  -13.1736 C   0  0  0  0  0  0
  -21.2701   20.8568  -12.2629 O   0  0  0  0  0  0
  -19.4494   20.0507  -14.1848 C   0  0  0  0  0  0
  -19.5548   18.6591  -14.5958 C   0  0  0  0  0  0
  -20.0426   17.3282  -14.0916 C   0  0  0  0  0  0
  -18.6387   18.3859  -15.6674 O   0  0  0  0  0  0
  -17.7071   19.3664  -15.6126 C   0  0  0  0  0  0
  -16.3572   19.4615  -16.2325 C   0  0  0  0  0  0
  -18.0659   20.0396  -14.5354 C   0  0  0  0  0  0
  -21.2009   25.5170  -12.9423 H   0  0  0  0  0  0
  -20.8266   20.8490  -11.4090 H   0  0  0  0  0  0
  1  2  1  0  0  0
  2  3  1  0  0  0
  2  7  1  0  0  0
  3  4  2  0  0  0
  4  5  1  0  0  0
  4  6  1  0  0  0
  6  7  2  0  0  0
  6  9  1  0  0  0
  7  8  1  0  0  0
  9 10  2  0  0  0
  9 11  2  0  0  0
  9 12  1  0  0  0
 12 13  1  0  0  0
 12 24  1  0  0  0
 13 14  1  0  0  0
 14 15  1  0  0  0
 15 16  1  0  0  0
 15 17  1  0  0  0
 16 25  1  0  0  0
 17 18  2  0  0  0
 17 23  1  0  0  0
 18 19  1  0  0  0
 18 20  1  0  0  0
 20 21  1  0  0  0
 21 22  1  0  0  0
 21 23  2  0  0  0
M  END
>  <CHROM.0>
40.40420861,68.15668877,-8.55936297,-59.68079932,-30.87782347,-62.36098581
-36.90089437,-163.43143740

>  <CHROM.1>
-172.13537715,10.66309463,-164.73209361,-171.27188475,-17.20895418,-96.05113830
-141.79936765,-22.11540489,22.73891394,-12.43843256,2.61148965,0.69222773
-0.15111723

>  <Name>
F6436-1059

>  <RI>
3.76119e+07

>  <Rbt.Current_Directory>
/home/adria/Escritorio/rDock_CMTR_LC/2pxcA_model/inputs_sah

>  <Rbt.Executable>
rbdock ($Id: //depot/dev/client3/rdock/2013.1/src/exe/rbdock.cxx#4 $)

>  <Rbt.Library>
libRbt.so (2013.1, Build901 2013/11/27)

>  <Rbt.Parameter_File>
/home/adria/Escritorio/rDock_2013.1_src/data/scripts/dock.prm

>  <Rbt.Receptor>
sah_rdock.prm

>  <SCORE>
-64.9571

>  <SCORE.INTER>
-21.7227

>  <SCORE.INTER.CONST>
1

>  <SCORE.INTER.POLAR>
-3.46951

>  <SCORE.INTER.REPUL>
0

>  <SCORE.INTER.ROT>
6

>  <SCORE.INTER.VDW>
-21.3264

>  <SCORE.INTER.norm>
-0.944467

>  <SCORE.INTRA>
-40.7658

>  <SCORE.INTRA.DIHEDRAL>
-1.07624

>  <SCORE.INTRA.DIHEDRAL.0>
11.5557

>  <SCORE.INTRA.POLAR>
0

>  <SCORE.INTRA.POLAR.0>
0

>  <SCORE.INTRA.REPUL>
0

>  <SCORE.INTRA.REPUL.0>
0

>  <SCORE.INTRA.VDW>
-40.2277

>  <SCORE.INTRA.VDW.0>
38.632

>  <SCORE.INTRA.norm>
-1.77243

>  <SCORE.RESTR>
0

>  <SCORE.RESTR.CAVITY>
0

>  <SCORE.RESTR.norm>
0

>  <SCORE.SYSTEM>
-2.4686

>  <SCORE.SYSTEM.CONST>
0

>  <SCORE.SYSTEM.DIHEDRAL>
10.4828

>  <SCORE.SYSTEM.POLAR>
-4.2317

>  <SCORE.SYSTEM.REPUL>
0.121841

>  <SCORE.SYSTEM.VDW>
6.06858

>  <SCORE.SYSTEM.norm>
-0.107331

>  <SCORE.heavy>
23

>  <SCORE.norm>
-2.82422

$$$$
F6436-1059
  rDOCK(R)          3D
libRbt.so/2013.1/901 2013/11/27
 25 26  0  0  0  0  0  0  0  0999 V2000
  -15.9535   18.8655  -17.3421 C   0  0  0  0  0  0
  -16.8552   19.1702  -16.2217 N   0  0  0  0  0  0
  -17.1729   20.4227  -15.9462 N   0  0  0  0  0  0
  -18.3527   20.4213  -15.2762 C   0  0  0  0  0  0
  -19.0286   21.7685  -15.3812 C   0  0  0  0  0  0
  -18.6901   19.0501  -14.7747 C   0  0  0  0  0  0
  -17.6319   18.2162  -15.6022 C   0  0  0  0  0  0
  -17.1962   16.7163  -16.2963 C   0  0  0  0  0  0
  -20.4216   18.5605  -13.6808 S   0  0  0  0  0  0
  -21.3909   18.1396  -14.7327 O   0  0  0  0  0  0
  -20.2294   17.3688  -12.5900 O   0  0  0  0  0  0
  -21.2582   19.5089  -12.6457 N   0  0  0  0  0  0
  -21.8446   20.5959  -13.4394 C   0  0  0  0  0  0
  -22.2441   21.6973  -12.4391 C   0  0  0  0  0  0
  -20.8851   22.4672  -11.4479 C   0  0  0  0  0  0
  -19.7433   21.6717  -11.7031 O   0  0  0  0  0  0
  -20.5767   24.1181  -10.7135 C   0  0  0  0  0  0
  -19.5064   25.0564  -10.4127 C   0  0  0  0  0  0
  -18.0526   25.0820  -10.0263 C   0  0  0  0  0  0
  -20.0519   26.3368  -10.0589 O   0  0  0  0  0  0
  -21.3349   26.1017   -9.6975 C   0  0  0  0  0  0
  -22.3043   26.9456   -8.9466 C   0  0  0  0  0  0
  -21.4146   24.7862   -9.7709 C   0  0  0  0  0  0
  -20.5519   19.9545  -12.0233 H   0  0  0  0  0  0
  -19.0100   22.2942  -11.7278 H   0  0  0  0  0  0
  1  2  1  0  0  0
  2  3  1  0  0  0
  2  7  1  0  0  0
  3  4  2  0  0  0
  4  5  1  0  0  0
  4  6  1  0  0  0
  6  7  2  0  0  0
  6  9  1  0  0  0
  7  8  1  0  0  0
  9 10  2  0  0  0
  9 11  2  0  0  0
  9 12  1  0  0  0
 12 13  1  0  0  0
 12 24  1  0  0  0
 13 14  1  0  0  0
 14 15  1  0  0  0
 15 16  1  0  0  0
 15 17  1  0  0  0
 16 25  1  0  0  0
 17 18  2  0  0  0
 17 23  1  0  0  0
 18 19  1  0  0  0
 18 20  1  0  0  0
 20 21  1  0  0  0
 21 22  1  0  0  0
 21 23  2  0  0  0
M  END
>  <CHROM.0>
38.08843330,60.81735455,72.10339093,60.29176268,-30.52498640,63.13050214
-36.30162089,-162.80347386

>  <CHROM.1>
92.51098711,66.23405070,-162.80249866,61.84215850,-9.44948172,143.32527000
-145.97967036,-19.70075168,21.23922291,-13.05006607,-1.24523951,0.54379135
0.50194494

>  <Name>
F6436-1059

>  <RI>
3.76119e+07

>  <Rbt.Current_Directory>
/home/adria/Escritorio/rDock_CMTR_LC/2pxcA_model/inputs_sah

>  <Rbt.Executable>
rbdock ($Id: //depot/dev/client3/rdock/2013.1/src/exe/rbdock.cxx#4 $)

>  <Rbt.Library>
libRbt.so (2013.1, Build901 2013/11/27)

>  <Rbt.Parameter_File>
/home/adria/Escritorio/rDock_2013.1_src/data/scripts/dock.prm

>  <Rbt.Receptor>
sah_rdock.prm

>  <SCORE>
-65.3369

>  <SCORE.INTER>
-17.9214

>  <SCORE.INTER.CONST>
1

>  <SCORE.INTER.POLAR>
-2.66269

>  <SCORE.INTER.REPUL>
0.0922608

>  <SCORE.INTER.ROT>
6

>  <SCORE.INTER.VDW>
-20.7295

>  <SCORE.INTER.norm>
-0.77919

>  <SCORE.INTRA>
-44.417

>  <SCORE.INTRA.DIHEDRAL>
-3.08032

>  <SCORE.INTRA.DIHEDRAL.0>
11.5557

>  <SCORE.INTRA.POLAR>
-0.799878

>  <SCORE.INTRA.POLAR.0>
0

>  <SCORE.INTRA.REPUL>
0

>  <SCORE.INTRA.REPUL.0>
0

>  <SCORE.INTRA.VDW>
-40.1573

>  <SCORE.INTRA.VDW.0>
38.632

>  <SCORE.INTRA.norm>
-1.93118

>  <SCORE.RESTR>
0

>  <SCORE.RESTR.CAVITY>
0

>  <SCORE.RESTR.norm>
0

>  <SCORE.SYSTEM>
-2.99847

>  <SCORE.SYSTEM.CONST>
0

>  <SCORE.SYSTEM.DIHEDRAL>
7.63551

>  <SCORE.SYSTEM.POLAR>
-3.6913

>  <SCORE.SYSTEM.REPUL>
0.129124

>  <SCORE.SYSTEM.VDW>
5.08856

>  <SCORE.SYSTEM.norm>
-0.130368

>  <SCORE.heavy>
23

>  <SCORE.norm>
-2.84073

$$$$
F6436-1059
  rDOCK(R)          3D
libRbt.so/2013.1/901 2013/11/27
 25 26  0  0  0  0  0  0  0  0999 V2000
  -14.8514   17.9067  -18.2112 C   0  0  0  0  0  0
  -15.8926   18.4281  -17.3140 N   0  0  0  0  0  0
  -16.6290   19.4620  -17.6806 N   0  0  0  0  0  0
  -17.7929   19.4192  -16.9848 C   0  0  0  0  0  0
  -18.8658   20.2175  -17.6881 C   0  0  0  0  0  0
  -17.6974   18.4747  -15.8253 C   0  0  0  0  0  0
  -16.3580   17.7328  -16.2198 C   0  0  0  0  0  0
  -15.3941   16.3266  -16.0980 C   0  0  0  0  0  0
  -19.2533   18.0805  -14.4622 S   0  0  0  0  0  0
  -20.4699   18.0430  -15.3234 O   0  0  0  0  0  0
  -19.1077   16.6836  -13.6408 O   0  0  0  0  0  0
  -19.6647   18.9358  -13.1318 N   0  0  0  0  0  0
  -19.0760   20.2722  -13.2829 C   0  0  0  0  0  0
  -20.1380   21.1374  -13.9880 C   0  0  0  0  0  0
  -21.3805   21.9870  -12.9127 C   0  0  0  0  0  0
  -22.5237   21.1538  -12.9369 O   0  0  0  0  0  0
  -21.3125   23.2332  -11.5703 C   0  0  0  0  0  0
  -22.1105   23.8054  -10.4967 C   0  0  0  0  0  0
  -23.5377   24.1336  -10.1523 C   0  0  0  0  0  0
  -21.2825   24.5927   -9.6267 O   0  0  0  0  0  0
  -20.1742   24.8897  -10.3446 C   0  0  0  0  0  0
  -19.1162   25.9129  -10.1221 C   0  0  0  0  0  0
  -20.4537   24.3723  -11.5262 C   0  0  0  0  0  0
  -19.1668   18.4896  -12.3331 H   0  0  0  0  0  0
  -23.2181   21.6995  -13.3189 H   0  0  0  0  0  0
  1  2  1  0  0  0
  2  3  1  0  0  0
  2  7  1  0  0  0
  3  4  2  0  0  0
  4  5  1  0  0  0
  4  6  1  0  0  0
  6  7  2  0  0  0
  6  9  1  0  0  0
  7  8  1  0  0  0
  9 10  2  0  0  0
  9 11  2  0  0  0
  9 12  1  0  0  0
 12 13  1  0  0  0
 12 24  1  0  0  0
 13 14  1  0  0  0
 14 15  1  0  0  0
 15 16  1  0  0  0
 15 17  1  0  0  0
 16 25  1  0  0  0
 17 18  2  0  0  0
 17 23  1  0  0  0
 18 19  1  0  0  0
 18 20  1  0  0  0
 20 21  1  0  0  0
 21 22  1  0  0  0
 21 23  2  0  0  0
M  END
>  <CHROM.0>
-178.64195873,-72.55886661,-163.24685410,149.69248788,-31.30638582,64.93032017
-37.76757073,-160.21360133

>  <CHROM.1>
39.37099160,19.10378779,90.79030176,87.36472889,-97.67599753,-118.65837585
-164.51323748,-19.28975178,20.47648117,-13.92251175,-0.98367575,0.57251246
0.41858782

>  <Name>
F6436-1059

>  <RI>
3.76119e+07

>  <Rbt.Current_Directory>
/home/adria/Escritorio/rDock_CMTR_LC/2pxcA_model/inputs_sah

>  <Rbt.Executable>
rbdock ($Id: //depot/dev/client3/rdock/2013.1/src/exe/rbdock.cxx#4 $)

>  <Rbt.Library>
libRbt.so (2013.1, Build901 2013/11/27)

>  <Rbt.Parameter_File>
/home/adria/Escritorio/rDock_2013.1_src/data/scripts/dock.prm

>  <Rbt.Receptor>
sah_rdock.prm

>  <SCORE>
-59.769

>  <SCORE.INTER>
-15.8694

>  <SCORE.INTER.CONST>
1

>  <SCORE.INTER.POLAR>
-1.53499

>  <SCORE.INTER.REPUL>
0.019822

>  <SCORE.INTER.ROT>
6

>  <SCORE.INTER.VDW>
-22.1496

>  <SCORE.INTER.norm>
-0.689975

>  <SCORE.INTRA>
-40.2609

>  <SCORE.INTRA.DIHEDRAL>
1.99465

>  <SCORE.INTRA.DIHEDRAL.0>
11.5557

>  <SCORE.INTRA.POLAR>
0

>  <SCORE.INTRA.POLAR.0>
0

>  <SCORE.INTRA.REPUL>
0

>  <SCORE.INTRA.REPUL.0>
0

>  <SCORE.INTRA.VDW>
-41.2583

>  <SCORE.INTRA.VDW.0>
38.632

>  <SCORE.INTRA.norm>
-1.75048

>  <SCORE.RESTR>
0

>  <SCORE.RESTR.CAVITY>
0

>  <SCORE.RESTR.norm>
0

>  <SCORE.SYSTEM>
-3.63863

>  <SCORE.SYSTEM.CONST>
0

>  <SCORE.SYSTEM.DIHEDRAL>
10.119

>  <SCORE.SYSTEM.POLAR>
-3.92277

>  <SCORE.SYSTEM.REPUL>
0.0377383

>  <SCORE.SYSTEM.VDW>
4.45061

>  <SCORE.SYSTEM.norm>
-0.158201

>  <SCORE.heavy>
23

>  <SCORE.norm>
-2.59865

$$$$
F6436-1059
  rDOCK(R)          3D
libRbt.so/2013.1/901 2013/11/27
 25 26  0  0  0  0  0  0  0  0999 V2000
  -26.8293   22.8927   -8.9805 C   0  0  0  0  0  0
  -25.8414   23.8666   -9.4668 N   0  0  0  0  0  0
  -24.8023   24.1898   -8.7174 N   0  0  0  0  0  0
  -23.8200   24.6485   -9.5331 C   0  0  0  0  0  0
  -22.4725   24.5456   -8.8574 C   0  0  0  0  0  0
  -24.3524   24.9679  -10.8970 C   0  0  0  0  0  0
  -25.7632   24.2631  -10.7836 C   0  0  0  0  0  0
  -27.0810   23.5279  -11.5863 C   0  0  0  0  0  0
  -23.2000   25.7085  -12.4963 S   0  0  0  0  0  0
  -24.2156   26.0200  -13.5426 O   0  0  0  0  0  0
  -22.3259   27.0374  -12.1538 O   0  0  0  0  0  0
  -21.9627   24.9720  -13.2691 N   0  0  0  0  0  0
  -21.8326   23.6302  -12.6877 C   0  0  0  0  0  0
  -20.7399   22.9091  -13.4997 C   0  0  0  0  0  0
  -20.0731   21.3323  -12.7989 C   0  0  0  0  0  0
  -19.5900   21.6726  -11.5134 O   0  0  0  0  0  0
  -20.3288   19.5465  -13.1236 C   0  0  0  0  0  0
  -19.6574   18.3716  -13.6580 C   0  0  0  0  0  0
  -18.6398   17.9809  -14.6950 C   0  0  0  0  0  0
  -20.4021   17.1855  -13.3406 O   0  0  0  0  0  0
  -21.6584   17.6048  -13.0615 C   0  0  0  0  0  0
  -22.9391   16.8510  -12.9758 C   0  0  0  0  0  0
  -21.5875   18.8995  -13.3081 C   0  0  0  0  0  0
  -21.1003   25.4892  -12.9974 H   0  0  0  0  0  0
  -18.8544   22.2708  -11.6773 H   0  0  0  0  0  0
  1  2  1  0  0  0
  2  3  1  0  0  0
  2  7  1  0  0  0
  3  4  2  0  0  0
  4  5  1  0  0  0
  4  6  1  0  0  0
  6  7  2  0  0  0
  6  9  1  0  0  0
  7  8  1  0  0  0
  9 10  2  0  0  0
  9 11  2  0  0  0
  9 12  1  0  0  0
 12 13  1  0  0  0
 12 24  1  0  0  0
 13 14  1  0  0  0
 14 15  1  0  0  0
 15 16  1  0  0  0
 15 17  1  0  0  0
 16 25  1  0  0  0
 17 18  2  0  0  0
 17 23  1  0  0  0
 18 19  1  0  0  0
 18 20  1  0  0  0
 20 21  1  0  0  0
 21 22  1  0  0  0
 21 23  2  0  0  0
M  END
>  <CHROM.0>
-59.30449865,-76.29000034,-47.51420759,146.78747250,168.71200481,-179.16071109
-156.18252374,-156.97322455

>  <CHROM.1>
-172.90054453,3.10118863,175.59766352,167.07610890,-56.95737919,-65.55786867
110.87420447,-22.63173878,22.51537661,-11.99068942,2.20799622,0.56721612
-0.00919980

>  <Name>
F6436-1059

>  <RI>
3.76119e+07

>  <Rbt.Current_Directory>
/home/adria/Escritorio/rDock_CMTR_LC/2pxcA_model/inputs_sah

>  <Rbt.Executable>
rbdock ($Id: //depot/dev/client3/rdock/2013.1/src/exe/rbdock.cxx#4 $)

>  <Rbt.Library>
libRbt.so (2013.1, Build901 2013/11/27)

>  <Rbt.Parameter_File>
/home/adria/Escritorio/rDock_2013.1_src/data/scripts/dock.prm

>  <Rbt.Receptor>
sah_rdock.prm

>  <SCORE>
-68.1315

>  <SCORE.INTER>
-27.8584

>  <SCORE.INTER.CONST>
1

>  <SCORE.INTER.POLAR>
-5.188

>  <SCORE.INTER.REPUL>
0.00417816

>  <SCORE.INTER.ROT>
6

>  <SCORE.INTER.VDW>
-21.6401

>  <SCORE.INTER.norm>
-1.21123

>  <SCORE.INTRA>
-40.7417

>  <SCORE.INTRA.DIHEDRAL>
-0.153578

>  <SCORE.INTRA.DIHEDRAL.0>
11.5557

>  <SCORE.INTRA.POLAR>
0

>  <SCORE.INTRA.POLAR.0>
0

>  <SCORE.INTRA.REPUL>
0

>  <SCORE.INTRA.REPUL.0>
0

>  <SCORE.INTRA.VDW>
-40.6649

>  <SCORE.INTRA.VDW.0>
38.632

>  <SCORE.INTRA.norm>
-1.77138

>  <SCORE.RESTR>
0

>  <SCORE.RESTR.CAVITY>
0

>  <SCORE.RESTR.norm>
0

>  <SCORE.SYSTEM>
0.468571

>  <SCORE.SYSTEM.CONST>
0

>  <SCORE.SYSTEM.DIHEDRAL>
8.38298

>  <SCORE.SYSTEM.POLAR>
-4.05176

>  <SCORE.SYSTEM.REPUL>
0.0438739

>  <SCORE.SYSTEM.VDW>
9.83369

>  <SCORE.SYSTEM.norm>
0.0203727

>  <SCORE.heavy>
23

>  <SCORE.norm>
-2.96224

$$$$
F6436-1059
  rDOCK(R)          3D
libRbt.so/2013.1/901 2013/11/27
 25 26  0  0  0  0  0  0  0  0999 V2000
  -22.4744   25.1613  -12.3212 C   0  0  0  0  0  0
  -22.6146   24.0031  -11.4267 N   0  0  0  0  0  0
  -23.6267   23.9360  -10.5801 N   0  0  0  0  0  0
  -23.8361   22.6306  -10.2752 C   0  0  0  0  0  0
  -25.2401   22.4211   -9.7577 C   0  0  0  0  0  0
  -22.6711   21.7834  -10.6884 C   0  0  0  0  0  0
  -21.9169   22.8288  -11.6040 C   0  0  0  0  0  0
  -20.8389   23.1011  -12.9021 C   0  0  0  0  0  0
  -22.5426   19.6990  -10.4185 S   0  0  0  0  0  0
  -22.2232   19.5543   -8.9693 O   0  0  0  0  0  0
  -23.9001   18.8764  -10.7757 O   0  0  0  0  0  0
  -21.5758   18.6414  -11.2045 N   0  0  0  0  0  0
  -20.8482   19.4043  -12.2263 C   0  0  0  0  0  0
  -20.0087   18.3818  -13.0158 C   0  0  0  0  0  0
  -18.8186   19.0536  -14.2626 C   0  0  0  0  0  0
  -17.8575   19.7691  -13.5103 O   0  0  0  0  0  0
  -18.3515   18.6306  -15.9839 C   0  0  0  0  0  0
  -18.2422   19.2061  -17.3156 C   0  0  0  0  0  0
  -18.8890   20.2411  -18.1953 C   0  0  0  0  0  0
  -17.5166   18.3203  -18.1824 O   0  0  0  0  0  0
  -17.5838   17.1004  -17.5998 C   0  0  0  0  0  0
  -17.3111   15.7439  -18.1486 C   0  0  0  0  0  0
  -18.3646   17.3247  -16.5595 C   0  0  0  0  0  0
  -22.2093   17.9968  -11.7221 H   0  0  0  0  0  0
  -18.1808   20.6752  -13.4961 H   0  0  0  0  0  0
  1  2  1  0  0  0
  2  3  1  0  0  0
  2  7  1  0  0  0
  3  4  2  0  0  0
  4  5  1  0  0  0
  4  6  1  0  0  0
  6  7  2  0  0  0
  6  9  1  0  0  0
  7  8  1  0  0  0
  9 10  2  0  0  0
  9 11  2  0  0  0
  9 12  1  0  0  0
 12 13  1  0  0  0
 12 24  1  0  0  0
 13 14  1  0  0  0
 14 15  1  0  0  0
 15 16  1  0  0  0
 15 17  1  0  0  0
 16 25  1  0  0  0
 17 18  2  0  0  0
 17 23  1  0  0  0
 18 19  1  0  0  0
 18 20  1  0  0  0
 20 21  1  0  0  0
 21 22  1  0  0  0
 21 23  2  0  0  0
M  END
>  <CHROM.0>
-72.26610471,-77.03873662,-7.65929595,64.66753401,-29.91775164,-58.68895272
-158.29077187,-160.56630363

>  <CHROM.1>
-76.94118884,-3.68106835,-176.53952996,-173.18042377,65.43134212,-92.99636188
124.93004944,-20.85940605,20.21597727,-13.11503231,-2.95527174,-0.96281593
2.81200982

>  <Name>
F6436-1059

>  <RI>
3.76119e+07

>  <Rbt.Current_Directory>
/home/adria/Escritorio/rDock_CMTR_LC/2pxcA_model/inputs_sah

>  <Rbt.Executable>
rbdock ($Id: //depot/dev/client3/rdock/2013.1/src/exe/rbdock.cxx#4 $)

>  <Rbt.Library>
libRbt.so (2013.1, Build901 2013/11/27)

>  <Rbt.Parameter_File>
/home/adria/Escritorio/rDock_2013.1_src/data/scripts/dock.prm

>  <Rbt.Receptor>
sah_rdock.prm

>  <SCORE>
-55.7885

>  <SCORE.INTER>
-7.56219

>  <SCORE.INTER.CONST>
1

>  <SCORE.INTER.POLAR>
-0.60539

>  <SCORE.INTER.REPUL>
0.271418

>  <SCORE.INTER.ROT>
6

>  <SCORE.INTER.VDW>
-18.261

>  <SCORE.INTER.norm>
-0.328791

>  <SCORE.INTRA>
-40.927

>  <SCORE.INTRA.DIHEDRAL>
-0.411208

>  <SCORE.INTRA.DIHEDRAL.0>
11.5557

>  <SCORE.INTRA.POLAR>
0

>  <SCORE.INTRA.POLAR.0>
0

>  <SCORE.INTRA.REPUL>
0

>  <SCORE.INTRA.REPUL.0>
0

>  <SCORE.INTRA.VDW>
-40.7214

>  <SCORE.INTRA.VDW.0>
38.632

>  <SCORE.INTRA.norm>
-1.77943

>  <SCORE.RESTR>
0

>  <SCORE.RESTR.CAVITY>
0

>  <SCORE.RESTR.norm>
0

>  <SCORE.SYSTEM>
-7.29934

>  <SCORE.SYSTEM.CONST>
0

>  <SCORE.SYSTEM.DIHEDRAL>
10.8158

>  <SCORE.SYSTEM.POLAR>
-4.71752

>  <SCORE.SYSTEM.REPUL>
0.0449364

>  <SCORE.SYSTEM.VDW>
3.10764

>  <SCORE.SYSTEM.norm>
-0.317363

>  <SCORE.heavy>
23

>  <SCORE.norm>
-2.42559

$$$$
F6436-1059
  rDOCK(R)          3D
libRbt.so/2013.1/901 2013/11/27
 25 26  0  0  0  0  0  0  0  0999 V2000
  -14.6531   18.5394  -17.8567 C   0  0  0  0  0  0
  -15.8839   18.7332  -17.0768 N   0  0  0  0  0  0
  -16.7046   19.7274  -17.3665 N   0  0  0  0  0  0
  -17.9398   19.4018  -16.9093 C   0  0  0  0  0  0
  -19.0031   20.1989  -17.6284 C   0  0  0  0  0  0
  -17.8779   18.2516  -15.9509 C   0  0  0  0  0  0
  -16.3979   17.7726  -16.2340 C   0  0  0  0  0  0
  -15.2619   16.4957  -16.2106 C   0  0  0  0  0  0
  -19.5432   17.3980  -14.9852 S   0  0  0  0  0  0
  -20.4005   16.9343  -16.1136 O   0  0  0  0  0  0
  -19.1987   16.1519  -13.9974 O   0  0  0  0  0  0
  -20.5511   18.1025  -13.9089 N   0  0  0  0  0  0
  -19.7191   18.9094  -13.0077 C   0  0  0  0  0  0
  -19.9372   20.3791  -13.4147 C   0  0  0  0  0  0
  -21.6489   21.0570  -13.2348 C   0  0  0  0  0  0
  -22.4985   20.0724  -13.7920 O   0  0  0  0  0  0
  -22.4520   22.3128  -12.1680 C   0  0  0  0  0  0
  -22.7381   23.7372  -12.0915 C   0  0  0  0  0  0
  -22.1586   25.0660  -12.4937 C   0  0  0  0  0  0
  -23.6885   23.9984  -11.0471 O   0  0  0  0  0  0
  -23.6393   22.9216  -10.2285 C   0  0  0  0  0  0
  -24.1361   22.7332   -8.8380 C   0  0  0  0  0  0
  -22.6688   22.2033  -10.7615 C   0  0  0  0  0  0
  -20.9420   17.3314  -13.3279 H   0  0  0  0  0  0
  -22.8970   20.4962  -14.5584 H   0  0  0  0  0  0
  1  2  1  0  0  0
  2  3  1  0  0  0
  2  7  1  0  0  0
  3  4  2  0  0  0
  4  5  1  0  0  0
  4  6  1  0  0  0
  6  7  2  0  0  0
  6  9  1  0  0  0
  7  8  1  0  0  0
  9 10  2  0  0  0
  9 11  2  0  0  0
  9 12  1  0  0  0
 12 13  1  0  0  0
 12 24  1  0  0  0
 13 14  1  0  0  0
 14 15  1  0  0  0
 15 16  1  0  0  0
 15 17  1  0  0  0
 16 25  1  0  0  0
 17 18  2  0  0  0
 17 23  1  0  0  0
 18 19  1  0  0  0
 18 20  1  0  0  0
 20 21  1  0  0  0
 21 22  1  0  0  0
 21 23  2  0  0  0
M  END
>  <CHROM.0>
-61.21783079,-74.58302934,-44.35899979,64.07661806,-31.16384541,60.83282130
-37.10492770,-162.58519664

>  <CHROM.1>
59.68117766,-41.04343260,105.31172095,62.72657938,-46.25710599,-115.39842246
87.92307079,-19.93461815,19.85839703,-14.20471121,-0.51965845,0.74535657
-0.05105547

>  <Name>
F6436-1059

>  <RI>
3.76119e+07

>  <Rbt.Current_Directory>
/home/adria/Escritorio/rDock_CMTR_LC/2pxcA_model/inputs_sah

>  <Rbt.Executable>
rbdock ($Id: //depot/dev/client3/rdock/2013.1/src/exe/rbdock.cxx#4 $)

>  <Rbt.Library>
libRbt.so (2013.1, Build901 2013/11/27)

>  <Rbt.Parameter_File>
/home/adria/Escritorio/rDock_2013.1_src/data/scripts/dock.prm

>  <Rbt.Receptor>
sah_rdock.prm

>  <SCORE>
-65.1442

>  <SCORE.INTER>
-15.9893

>  <SCORE.INTER.CONST>
1

>  <SCORE.INTER.POLAR>
-2.30291

>  <SCORE.INTER.REPUL>
0.0773174

>  <SCORE.INTER.ROT>
6

>  <SCORE.INTER.VDW>
-19.9459

>  <SCORE.INTER.norm>
-0.695185

>  <SCORE.INTRA>
-41.5419

>  <SCORE.INTRA.DIHEDRAL>
-1.08302

>  <SCORE.INTRA.DIHEDRAL.0>
11.5557

>  <SCORE.INTRA.POLAR>
0

>  <SCORE.INTRA.POLAR.0>
0

>  <SCORE.INTRA.REPUL>
0

>  <SCORE.INTRA.REPUL.0>
0

>  <SCORE.INTRA.VDW>
-41.0004

>  <SCORE.INTRA.VDW.0>
38.632

>  <SCORE.INTRA.norm>
-1.80617

>  <SCORE.RESTR>
0

>  <SCORE.RESTR.CAVITY>
0

>  <SCORE.RESTR.norm>
0

>  <SCORE.SYSTEM>
-7.61305

>  <SCORE.SYSTEM.CONST>
0

>  <SCORE.SYSTEM.DIHEDRAL>
6.61735

>  <SCORE.SYSTEM.POLAR>
-4.03874

>  <SCORE.SYSTEM.REPUL>
0.0412391

>  <SCORE.SYSTEM.VDW>
2.6038

>  <SCORE.SYSTEM.norm>
-0.331002

>  <SCORE.heavy>
23

>  <SCORE.norm>
-2.83236

$$$$
F6436-1059
  rDOCK(R)          3D
libRbt.so/2013.1/901 2013/11/27
 25 26  0  0  0  0  0  0  0  0999 V2000
  -26.8241   22.2671  -10.2354 C   0  0  0  0  0  0
  -25.7588   23.2700  -10.3781 N   0  0  0  0  0  0
  -25.0801   23.6738   -9.3189 N   0  0  0  0  0  0
  -23.8818   24.1494   -9.7416 C   0  0  0  0  0  0
  -22.8756   24.1407   -8.6144 C   0  0  0  0  0  0
  -23.8842   24.3886  -11.2209 C   0  0  0  0  0  0
  -25.2138   23.6186  -11.5942 C   0  0  0  0  0  0
  -26.1183   22.7874  -12.7826 C   0  0  0  0  0  0
  -22.2483   25.1237  -12.3244 S   0  0  0  0  0  0
  -22.7582   25.1537  -13.7252 O   0  0  0  0  0  0
  -21.7348   26.6039  -11.8855 O   0  0  0  0  0  0
  -20.7345   24.5131  -12.4050 N   0  0  0  0  0  0
  -20.8523   23.0564  -12.2651 C   0  0  0  0  0  0
  -20.5652   22.4618  -13.6570 C   0  0  0  0  0  0
  -20.2897   20.6350  -13.7513 C   0  0  0  0  0  0
  -19.2025   20.3784  -12.8831 O   0  0  0  0  0  0
  -21.2984   19.1846  -14.2399 C   0  0  0  0  0  0
  -21.7348   18.4333  -15.4069 C   0  0  0  0  0  0
  -22.0834   18.6305  -16.8571 C   0  0  0  0  0  0
  -22.3243   17.1872  -15.0045 O   0  0  0  0  0  0
  -22.6698   17.3472  -13.7057 C   0  0  0  0  0  0
  -23.5827   16.5548  -12.8371 C   0  0  0  0  0  0
  -22.3654   18.6123  -13.4842 C   0  0  0  0  0  0
  -20.2403   24.8461  -11.5507 H   0  0  0  0  0  0
  -18.4917   20.0817  -13.4597 H   0  0  0  0  0  0
  1  2  1  0  0  0
  2  3  1  0  0  0
  2  7  1  0  0  0
  3  4  2  0  0  0
  4  5  1  0  0  0
  4  6  1  0  0  0
  6  7  2  0  0  0
  6  9  1  0  0  0
  7  8  1  0  0  0
  9 10  2  0  0  0
  9 11  2  0  0  0
  9 12  1  0  0  0
 12 13  1  0  0  0
 12 24  1  0  0  0
 13 14  1  0  0  0
 14 15  1  0  0  0
 15 16  1  0  0  0
 15 17  1  0  0  0
 16 25  1  0  0  0
 17 18  2  0  0  0
 17 23  1  0  0  0
 18 19  1  0  0  0
 18 20  1  0  0  0
 20 21  1  0  0  0
 21 22  1  0  0  0
 21 23  2  0  0  0
M  END
>  <CHROM.0>
-178.66354161,-75.20899898,75.80689674,61.97661466,168.51292402,-58.13996186
82.35758260,-54.30992852

>  <CHROM.1>
179.11536913,32.22628881,107.70966214,167.69912365,-57.59347211,-113.90128597
82.64221070,-22.72704070,22.04400711,-12.52947063,1.83367028,0.50633983,0.37183976

>  <Name>
F6436-1059

>  <RI>
3.76119e+07

>  <Rbt.Current_Directory>
/home/adria/Escritorio/rDock_CMTR_LC/2pxcA_model/inputs_sah

>  <Rbt.Executable>
rbdock ($Id: //depot/dev/client3/rdock/2013.1/src/exe/rbdock.cxx#4 $)

>  <Rbt.Library>
libRbt.so (2013.1, Build901 2013/11/27)

>  <Rbt.Parameter_File>
/home/adria/Escritorio/rDock_2013.1_src/data/scripts/dock.prm

>  <Rbt.Receptor>
sah_rdock.prm

>  <SCORE>
-57.0988

>  <SCORE.INTER>
-15.6125

>  <SCORE.INTER.CONST>
1

>  <SCORE.INTER.POLAR>
-2.76509

>  <SCORE.INTER.REPUL>
0.0302513

>  <SCORE.INTER.ROT>
6

>  <SCORE.INTER.VDW>
-17.7625

>  <SCORE.INTER.norm>
-0.678805

>  <SCORE.INTRA>
-41.2051

>  <SCORE.INTRA.DIHEDRAL>
-0.416002

>  <SCORE.INTRA.DIHEDRAL.0>
11.5557

>  <SCORE.INTRA.POLAR>
0

>  <SCORE.INTRA.POLAR.0>
0

>  <SCORE.INTRA.REPUL>
0

>  <SCORE.INTRA.REPUL.0>
0

>  <SCORE.INTRA.VDW>
-40.9971

>  <SCORE.INTRA.VDW.0>
38.632

>  <SCORE.INTRA.norm>
-1.79153

>  <SCORE.RESTR>
0

>  <SCORE.RESTR.CAVITY>
0

>  <SCORE.RESTR.norm>
0

>  <SCORE.SYSTEM>
-0.28117

>  <SCORE.SYSTEM.CONST>
0

>  <SCORE.SYSTEM.DIHEDRAL>
6.59608

>  <SCORE.SYSTEM.POLAR>
-3.60026

>  <SCORE.SYSTEM.REPUL>
0.0429727

>  <SCORE.SYSTEM.VDW>
8.44681

>  <SCORE.SYSTEM.norm>
-0.0122248

>  <SCORE.heavy>
23

>  <SCORE.norm>
-2.48256

$$$$
F6436-1059
  rDOCK(R)          3D
libRbt.so/2013.1/901 2013/11/27
 25 26  0  0  0  0  0  0  0  0999 V2000
  -26.1834   22.5049   -8.6356 C   0  0  0  0  0  0
  -25.3928   23.6136   -9.1893 N   0  0  0  0  0  0
  -24.3594   24.0922   -8.5195 N   0  0  0  0  0  0
  -23.5225   24.6893   -9.4049 C   0  0  0  0  0  0
  -22.1268   24.7925   -8.8352 C   0  0  0  0  0  0
  -24.1999   24.9192  -10.7216 C   0  0  0  0  0  0
  -25.4763   24.0114  -10.5054 C   0  0  0  0  0  0
  -26.7269   23.0834  -11.2099 C   0  0  0  0  0  0
  -23.2978   25.8169  -12.3993 S   0  0  0  0  0  0
  -24.4507   26.1179  -13.2956 O   0  0  0  0  0  0
  -22.4658   27.1790  -12.0836 O   0  0  0  0  0  0
  -22.1249   25.2039  -13.3582 N   0  0  0  0  0  0
  -22.1431   23.7468  -13.1788 C   0  0  0  0  0  0
  -20.6715   23.2909  -13.1787 C   0  0  0  0  0  0
  -20.2976   21.6541  -13.9551 C   0  0  0  0  0  0
  -19.3063   21.9226  -14.9282 O   0  0  0  0  0  0
  -20.5021   19.8990  -13.4675 C   0  0  0  0  0  0
  -19.8669   18.5955  -13.5861 C   0  0  0  0  0  0
  -19.0237   17.7916  -14.5380 C   0  0  0  0  0  0
  -20.4756   17.6612  -12.6811 O   0  0  0  0  0  0
  -21.6865   18.1826  -12.3751 C   0  0  0  0  0  0
  -22.8872   17.5566  -11.7570 C   0  0  0  0  0  0
  -21.7343   19.2581  -13.1388 C   0  0  0  0  0  0
  -21.2208   25.5326  -12.9589 H   0  0  0  0  0  0
  -18.4896   21.5855  -14.5473 H   0  0  0  0  0  0
  1  2  1  0  0  0
  2  3  1  0  0  0
  2  7  1  0  0  0
  3  4  2  0  0  0
  4  5  1  0  0  0
  4  6  1  0  0  0
  6  7  2  0  0  0
  6  9  1  0  0  0
  7  8  1  0  0  0
  9 10  2  0  0  0
  9 11  2  0  0  0
  9 12  1  0  0  0
 12 13  1  0  0  0
 12 24  1  0  0  0
 13 14  1  0  0  0
 14 15  1  0  0  0
 15 16  1  0  0  0
 15 17  1  0  0  0
 16 25  1  0  0  0
 17 18  2  0  0  0
 17 23  1  0  0  0
 18 19  1  0  0  0
 18 20  1  0  0  0
 20 21  1  0  0  0
 21 22  1  0  0  0
 21 23  2  0  0  0
M  END
>  <CHROM.0>
-60.99535638,-73.50484052,-41.33942229,67.12172183,168.32771560,-177.97085546
83.28312678,-54.56604832

>  <CHROM.1>
-166.33344326,20.79025713,-141.10648363,-144.56518047,125.06933482,105.44225444
-144.94434908,-22.58599722,22.63886871,-12.00459089,2.32322131,0.75856661
-0.15508955

>  <Name>
F6436-1059

>  <RI>
3.76119e+07

>  <Rbt.Current_Directory>
/home/adria/Escritorio/rDock_CMTR_LC/2pxcA_model/inputs_sah

>  <Rbt.Executable>
rbdock ($Id: //depot/dev/client3/rdock/2013.1/src/exe/rbdock.cxx#4 $)

>  <Rbt.Library>
libRbt.so (2013.1, Build901 2013/11/27)

>  <Rbt.Parameter_File>
/home/adria/Escritorio/rDock_2013.1_src/data/scripts/dock.prm

>  <Rbt.Receptor>
sah_rdock.prm

>  <SCORE>
-63.7743

>  <SCORE.INTER>
-25.3157

>  <SCORE.INTER.CONST>
1

>  <SCORE.INTER.POLAR>
-4.33678

>  <SCORE.INTER.REPUL>
0

>  <SCORE.INTER.ROT>
6

>  <SCORE.INTER.VDW>
-21.9707

>  <SCORE.INTER.norm>
-1.10068

>  <SCORE.INTRA>
-38.1289

>  <SCORE.INTRA.DIHEDRAL>
2.89486

>  <SCORE.INTRA.DIHEDRAL.0>
11.5557

>  <SCORE.INTRA.POLAR>
0

>  <SCORE.INTRA.POLAR.0>
0

>  <SCORE.INTRA.REPUL>
0

>  <SCORE.INTRA.REPUL.0>
0

>  <SCORE.INTRA.VDW>
-39.5763

>  <SCORE.INTRA.VDW.0>
38.632

>  <SCORE.INTRA.norm>
-1.65778

>  <SCORE.RESTR>
0

>  <SCORE.RESTR.CAVITY>
0

>  <SCORE.RESTR.norm>
0

>  <SCORE.SYSTEM>
-0.329673

>  <SCORE.SYSTEM.CONST>
0

>  <SCORE.SYSTEM.DIHEDRAL>
6.93483

>  <SCORE.SYSTEM.POLAR>
-3.56593

>  <SCORE.SYSTEM.REPUL>
0.0395023

>  <SCORE.SYSTEM.VDW>
8.12958

>  <SCORE.SYSTEM.norm>
-0.0143336

>  <SCORE.heavy>
23

>  <SCORE.norm>
-2.7728

$$$$
F6436-1059
  rDOCK(R)          3D
libRbt.so/2013.1/901 2013/11/27
 25 26  0  0  0  0  0  0  0  0999 V2000
  -16.9845   19.4854  -15.6071 C   0  0  0  0  0  0
  -18.1587   19.1201  -14.8017 N   0  0  0  0  0  0
  -18.4036   19.7439  -13.6630 N   0  0  0  0  0  0
  -19.7286   19.6285  -13.3950 C   0  0  0  0  0  0
  -20.1764   20.7084  -12.4377 C   0  0  0  0  0  0
  -20.3637   18.5699  -14.2444 C   0  0  0  0  0  0
  -19.1972   18.3588  -15.2906 C   0  0  0  0  0  0
  -18.7345   17.8656  -16.8604 C   0  0  0  0  0  0
  -22.3996   18.0355  -14.1802 S   0  0  0  0  0  0
  -22.8149   18.0726  -15.6118 O   0  0  0  0  0  0
  -22.7034   16.5670  -13.5489 O   0  0  0  0  0  0
  -23.6018   18.7558  -13.3396 N   0  0  0  0  0  0
  -23.3122   20.1951  -13.3263 C   0  0  0  0  0  0
  -24.6707   20.9102  -13.1978 C   0  0  0  0  0  0
  -24.6463   22.6639  -12.6097 C   0  0  0  0  0  0
  -25.7172   23.2964  -13.2840 O   0  0  0  0  0  0
  -23.9746   23.5432  -11.1483 C   0  0  0  0  0  0
  -23.3255   24.7849  -10.7568 C   0  0  0  0  0  0
  -22.3714   25.8198  -11.2881 C   0  0  0  0  0  0
  -23.3270   24.9179   -9.3269 O   0  0  0  0  0  0
  -23.5169   23.6683   -8.8425 C   0  0  0  0  0  0
  -23.3031   23.1106   -7.4790 C   0  0  0  0  0  0
  -23.5193   22.9351   -9.9400 C   0  0  0  0  0  0
  -23.5028   18.4324  -12.3545 H   0  0  0  0  0  0
  -26.2179   23.7380  -12.5912 H   0  0  0  0  0  0
  1  2  1  0  0  0
  2  3  1  0  0  0
  2  7  1  0  0  0
  3  4  2  0  0  0
  4  5  1  0  0  0
  4  6  1  0  0  0
  6  7  2  0  0  0
  6  9  1  0  0  0
  7  8  1  0  0  0
  9 10  2  0  0  0
  9 11  2  0  0  0
  9 12  1  0  0  0
 12 13  1  0  0  0
 12 24  1  0  0  0
 13 14  1  0  0  0
 14 15  1  0  0  0
 15 16  1  0  0  0
 15 17  1  0  0  0
 16 25  1  0  0  0
 17 18  2  0  0  0
 17 23  1  0  0  0
 18 19  1  0  0  0
 18 20  1  0  0  0
 20 21  1  0  0  0
 21 22  1  0  0  0
 21 23  2  0  0  0
M  END
>  <CHROM.0>
-61.52966115,-166.28889823,-10.44407484,-63.13016892,-30.99090568,-58.42408684
-38.91921092,-164.34812842

>  <CHROM.1>
129.84052040,34.89829764,152.49182412,160.74392119,146.41913666,129.23139804
141.69475590,-22.00715312,20.72563966,-12.89149996,-1.08143556,0.12290037
0.63863469

>  <Name>
F6436-1059

>  <RI>
3.76119e+07

>  <Rbt.Current_Directory>
/home/adria/Escritorio/rDock_CMTR_LC/2pxcA_model/inputs_sah

>  <Rbt.Executable>
rbdock ($Id: //depot/dev/client3/rdock/2013.1/src/exe/rbdock.cxx#4 $)

>  <Rbt.Library>
libRbt.so (2013.1, Build901 2013/11/27)

>  <Rbt.Parameter_File>
/home/adria/Escritorio/rDock_2013.1_src/data/scripts/dock.prm

>  <Rbt.Receptor>
sah_rdock.prm

>  <SCORE>
-50.7353

>  <SCORE.INTER>
-4.1648

>  <SCORE.INTER.CONST>
1

>  <SCORE.INTER.POLAR>
-0.176166

>  <SCORE.INTER.REPUL>
0

>  <SCORE.INTER.ROT>
6

>  <SCORE.INTER.VDW>
-14.9658

>  <SCORE.INTER.norm>
-0.181078

>  <SCORE.INTRA>
-40.6131

>  <SCORE.INTRA.DIHEDRAL>
0.358571

>  <SCORE.INTRA.DIHEDRAL.0>
11.5557

>  <SCORE.INTRA.POLAR>
0

>  <SCORE.INTRA.POLAR.0>
0

>  <SCORE.INTRA.REPUL>
0

>  <SCORE.INTRA.REPUL.0>
0

>  <SCORE.INTRA.VDW>
-40.7923

>  <SCORE.INTRA.VDW.0>
38.632

>  <SCORE.INTRA.norm>
-1.76578

>  <SCORE.RESTR>
0

>  <SCORE.RESTR.CAVITY>
0

>  <SCORE.RESTR.norm>
0

>  <SCORE.SYSTEM>
-5.95745

>  <SCORE.SYSTEM.CONST>
0

>  <SCORE.SYSTEM.DIHEDRAL>
9.04435

>  <SCORE.SYSTEM.POLAR>
-4.21262

>  <SCORE.SYSTEM.VDW>
3.84329

>  <SCORE.SYSTEM.norm>
-0.25902

>  <SCORE.heavy>
23

>  <SCORE.norm>
-2.20588

$$$$
F6436-1059
  rDOCK(R)          3D
libRbt.so/2013.1/901 2013/11/27
 25 26  0  0  0  0  0  0  0  0999 V2000
  -26.9057   22.6242   -9.2126 C   0  0  0  0  0  0
  -25.9520   23.6419   -9.6769 N   0  0  0  0  0  0
  -24.9644   24.0345   -8.8919 N   0  0  0  0  0  0
  -23.9746   24.5318   -9.6753 C   0  0  0  0  0  0
  -22.6533   24.5145   -8.9425 C   0  0  0  0  0  0
  -24.4653   24.7976  -11.0660 C   0  0  0  0  0  0
  -25.8396   24.0189  -10.9970 C   0  0  0  0  0  0
  -27.0807   23.1987  -11.8387 C   0  0  0  0  0  0
  -23.2877   25.5717  -12.6308 S   0  0  0  0  0  0
  -24.2652   25.7641  -13.7402 O   0  0  0  0  0  0
  -22.5403   26.9775  -12.2955 O   0  0  0  0  0  0
  -21.9559   24.9101  -13.3085 N   0  0  0  0  0  0
  -21.7965   23.5733  -12.7228 C   0  0  0  0  0  0
  -20.5397   22.9622  -13.3712 C   0  0  0  0  0  0
  -20.1113   21.2247  -12.9026 C   0  0  0  0  0  0
  -20.5073   21.0966  -11.5504 O   0  0  0  0  0  0
  -19.8111   19.6618  -13.8122 C   0  0  0  0  0  0
  -20.4064   18.3628  -14.0854 C   0  0  0  0  0  0
  -21.2851   17.3244  -13.4426 C   0  0  0  0  0  0
  -19.7032   17.7077  -15.1525 O   0  0  0  0  0  0
  -18.4931   18.3103  -15.2187 C   0  0  0  0  0  0
  -17.2306   17.8870  -15.8841 C   0  0  0  0  0  0
  -18.5370   19.1491  -14.2005 C   0  0  0  0  0  0
  -21.1469   25.4720  -12.9697 H   0  0  0  0  0  0
  -20.0327   20.3247  -11.2269 H   0  0  0  0  0  0
  1  2  1  0  0  0
  2  3  1  0  0  0
  2  7  1  0  0  0
  3  4  2  0  0  0
  4  5  1  0  0  0
  4  6  1  0  0  0
  6  7  2  0  0  0
  6  9  1  0  0  0
  7  8  1  0  0  0
  9 10  2  0  0  0
  9 11  2  0  0  0
  9 12  1  0  0  0
 12 13  1  0  0  0
 12 24  1  0  0  0
 13 14  1  0  0  0
 14 15  1  0  0  0
 15 16  1  0  0  0
 15 17  1  0  0  0
 16 25  1  0  0  0
 17 18  2  0  0  0
 17 23  1  0  0  0
 18 19  1  0  0  0
 18 20  1  0  0  0
 20 21  1  0  0  0
 21 22  1  0  0  0
 21 23  2  0  0  0
M  END
>  <CHROM.0>
-154.80163483,67.25022865,-164.48754121,63.48794904,-31.17809508,-179.51284946
-157.30786532,-163.27580027

>  <CHROM.1>
-174.80379161,6.17844289,179.95095343,-176.91814339,-33.81298588,-161.72395613
-108.17676502,-22.33786218,22.46544459,-12.38759242,2.45273068,0.64159734
-0.08823233

>  <Name>
F6436-1059

>  <RI>
3.76119e+07

>  <Rbt.Current_Directory>
/home/adria/Escritorio/rDock_CMTR_LC/2pxcA_model/inputs_sah

>  <Rbt.Executable>
rbdock ($Id: //depot/dev/client3/rdock/2013.1/src/exe/rbdock.cxx#4 $)

>  <Rbt.Library>
libRbt.so (2013.1, Build901 2013/11/27)

>  <Rbt.Parameter_File>
/home/adria/Escritorio/rDock_2013.1_src/data/scripts/dock.prm

>  <Rbt.Receptor>
sah_rdock.prm

>  <SCORE>
-69.2743

>  <SCORE.INTER>
-22.4944

>  <SCORE.INTER.CONST>
1

>  <SCORE.INTER.POLAR>
-3.60869

>  <SCORE.INTER.REPUL>
0.015496

>  <SCORE.INTER.ROT>
6

>  <SCORE.INTER.VDW>
-21.7023

>  <SCORE.INTER.norm>
-0.978019

>  <SCORE.INTRA>
-41.2097

>  <SCORE.INTRA.DIHEDRAL>
-1.15323

>  <SCORE.INTRA.DIHEDRAL.0>
11.5557

>  <SCORE.INTRA.POLAR>
0

>  <SCORE.INTRA.POLAR.0>
0

>  <SCORE.INTRA.REPUL>
0

>  <SCORE.INTRA.REPUL.0>
0

>  <SCORE.INTRA.VDW>
-40.633

>  <SCORE.INTRA.VDW.0>
38.632

>  <SCORE.INTRA.norm>
-1.79172

>  <SCORE.RESTR>
0

>  <SCORE.RESTR.CAVITY>
0

>  <SCORE.RESTR.norm>
0

>  <SCORE.SYSTEM>
-5.57022

>  <SCORE.SYSTEM.CONST>
0

>  <SCORE.SYSTEM.DIHEDRAL>
8.48656

>  <SCORE.SYSTEM.POLAR>
-3.68912

>  <SCORE.SYSTEM.VDW>
2.72952

>  <SCORE.SYSTEM.norm>
-0.242184

>  <SCORE.heavy>
23

>  <SCORE.norm>
-3.01193

$$$$
F6436-1059
  rDOCK(R)          3D
libRbt.so/2013.1/901 2013/11/27
 25 26  0  0  0  0  0  0  0  0999 V2000
  -27.2769   23.0196   -9.4440 C   0  0  0  0  0  0
  -26.0066   23.7411   -9.2802 N   0  0  0  0  0  0
  -25.2950   23.5916   -8.1770 N   0  0  0  0  0  0
  -24.0046   23.8986   -8.4623 C   0  0  0  0  0  0
  -23.0708   23.2755   -7.4509 C   0  0  0  0  0  0
  -23.8958   24.6250   -9.7684 C   0  0  0  0  0  0
  -25.3503   24.3528  -10.3253 C   0  0  0  0  0  0
  -26.3739   24.2083  -11.6865 C   0  0  0  0  0  0
  -22.0943   25.3030  -10.6225 S   0  0  0  0  0  0
  -22.4103   26.6991  -11.0399 O   0  0  0  0  0  0
  -20.8144   25.2970   -9.6181 O   0  0  0  0  0  0
  -21.2549   24.6387  -11.8574 N   0  0  0  0  0  0
  -21.0757   23.2170  -11.5376 C   0  0  0  0  0  0
  -20.5190   22.5523  -12.8110 C   0  0  0  0  0  0
  -19.7632   20.8744  -12.6228 C   0  0  0  0  0  0
  -18.7352   21.0358  -11.6643 O   0  0  0  0  0  0
  -20.3016   19.1538  -12.9539 C   0  0  0  0  0  0
  -19.8515   17.9084  -13.5564 C   0  0  0  0  0  0
  -18.9820   17.4016  -14.6748 C   0  0  0  0  0  0
  -20.7366   16.8350  -13.2005 O   0  0  0  0  0  0
  -21.8935   17.4248  -12.8188 C   0  0  0  0  0  0
  -23.2610   16.8629  -12.6459 C   0  0  0  0  0  0
  -21.6518   18.7015  -13.0505 C   0  0  0  0  0  0
  -20.3045   25.0638  -11.8255 H   0  0  0  0  0  0
  -18.4536   21.9512  -11.7571 H   0  0  0  0  0  0
  1  2  1  0  0  0
  2  3  1  0  0  0
  2  7  1  0  0  0
  3  4  2  0  0  0
  4  5  1  0  0  0
  4  6  1  0  0  0
  6  7  2  0  0  0
  6  9  1  0  0  0
  7  8  1  0  0  0
  9 10  2  0  0  0
  9 11  2  0  0  0
  9 12  1  0  0  0
 12 13  1  0  0  0
 12 24  1  0  0  0
 13 14  1  0  0  0
 14 15  1  0  0  0
 15 16  1  0  0  0
 15 17  1  0  0  0
 16 25  1  0  0  0
 17 18  2  0  0  0
 17 23  1  0  0  0
 18 19  1  0  0  0
 18 20  1  0  0  0
 20 21  1  0  0  0
 21 22  1  0  0  0
 21 23  2  0  0  0
M  END
>  <CHROM.0>
-165.62847604,-167.67271117,111.75393777,148.83018130,-32.33594992,-56.83845899
-35.85153060,-167.78091374

>  <CHROM.1>
-133.47863576,-50.95588918,169.84605138,164.19414317,-57.16690587,-28.43610882
133.82043177,-22.32719135,22.16199967,-11.23197876,2.06472755,0.34801093
0.31765546

>  <Name>
F6436-1059

>  <RI>
3.76119e+07

>  <Rbt.Current_Directory>
/home/adria/Escritorio/rDock_CMTR_LC/2pxcA_model/inputs_sah

>  <Rbt.Executable>
rbdock ($Id: //depot/dev/client3/rdock/2013.1/src/exe/rbdock.cxx#4 $)

>  <Rbt.Library>
libRbt.so (2013.1, Build901 2013/11/27)

>  <Rbt.Parameter_File>
/home/adria/Escritorio/rDock_2013.1_src/data/scripts/dock.prm

>  <Rbt.Receptor>
sah_rdock.prm

>  <SCORE>
-59.993

>  <SCORE.INTER>
-17.8069

>  <SCORE.INTER.CONST>
1

>  <SCORE.INTER.POLAR>
-2.92049

>  <SCORE.INTER.REPUL>
0

>  <SCORE.INTER.ROT>
6

>  <SCORE.INTER.VDW>
-19.2773

>  <SCORE.INTER.norm>
-0.774215

>  <SCORE.INTRA>
-40.1728

>  <SCORE.INTRA.DIHEDRAL>
-1.86195

>  <SCORE.INTRA.DIHEDRAL.0>
11.5557

>  <SCORE.INTRA.POLAR>
0

>  <SCORE.INTRA.POLAR.0>
0

>  <SCORE.INTRA.REPUL>
0

>  <SCORE.INTRA.REPUL.0>
0

>  <SCORE.INTRA.VDW>
-39.2418

>  <SCORE.INTRA.VDW.0>
38.632

>  <SCORE.INTRA.norm>
-1.74664

>  <SCORE.RESTR>
0

>  <SCORE.RESTR.CAVITY>
0

>  <SCORE.RESTR.norm>
0

>  <SCORE.SYSTEM>
-2.01321

>  <SCORE.SYSTEM.CONST>
0

>  <SCORE.SYSTEM.DIHEDRAL>
13.6089

>  <SCORE.SYSTEM.POLAR>
-4.26434

>  <SCORE.SYSTEM.VDW>
5.68107

>  <SCORE.SYSTEM.norm>
-0.0875311

>  <SCORE.heavy>
23

>  <SCORE.norm>
-2.60839

$$$$
F6436-1059
  rDOCK(R)          3D
libRbt.so/2013.1/901 2013/11/27
 25 26  0  0  0  0  0  0  0  0999 V2000
  -27.0547   23.7736   -9.3322 C   0  0  0  0  0  0
  -25.8609   24.3133   -9.9989 N   0  0  0  0  0  0
  -24.8882   24.8528   -9.2857 N   0  0  0  0  0  0
  -23.7447   24.7860  -10.0129 C   0  0  0  0  0  0
  -22.5337   24.8882   -9.1151 C   0  0  0  0  0  0
  -24.0334   24.4788  -11.4509 C   0  0  0  0  0  0
  -25.5460   24.0402  -11.3118 C   0  0  0  0  0  0
  -26.8541   23.1387  -11.9425 C   0  0  0  0  0  0
  -22.5740   24.2786  -12.9557 S   0  0  0  0  0  0
  -23.1557   25.0267  -14.1069 O   0  0  0  0  0  0
  -21.1120   24.8845  -12.5779 O   0  0  0  0  0  0
  -21.9531   22.9004  -13.5767 N   0  0  0  0  0  0
  -21.2997   22.1888  -12.4712 C   0  0  0  0  0  0
  -20.7640   20.8698  -13.0601 C   0  0  0  0  0  0
  -19.7763   20.9845  -14.6199 C   0  0  0  0  0  0
  -19.6613   22.3694  -14.8854 O   0  0  0  0  0  0
  -18.6102   19.8872  -15.5122 C   0  0  0  0  0  0
  -18.4916   18.5445  -16.0597 C   0  0  0  0  0  0
  -18.9588   17.1369  -15.8071 C   0  0  0  0  0  0
  -17.3333   18.4517  -16.9034 O   0  0  0  0  0  0
  -16.5323   19.4809  -16.5415 C   0  0  0  0  0  0
  -15.0906   19.7335  -16.8124 C   0  0  0  0  0  0
  -17.1880   20.0075  -15.5242 C   0  0  0  0  0  0
  -21.1904   23.1903  -14.2242 H   0  0  0  0  0  0
  -18.7220   22.5141  -15.0358 H   0  0  0  0  0  0
  1  2  1  0  0  0
  2  3  1  0  0  0
  2  7  1  0  0  0
  3  4  2  0  0  0
  4  5  1  0  0  0
  4  6  1  0  0  0
  6  7  2  0  0  0
  6  9  1  0  0  0
  7  8  1  0  0  0
  9 10  2  0  0  0
  9 11  2  0  0  0
  9 12  1  0  0  0
 12 13  1  0  0  0
 12 24  1  0  0  0
 13 14  1  0  0  0
 14 15  1  0  0  0
 15 16  1  0  0  0
 15 17  1  0  0  0
 16 25  1  0  0  0
 17 18  2  0  0  0
 17 23  1  0  0  0
 18 19  1  0  0  0
 18 20  1  0  0  0
 20 21  1  0  0  0
 21 22  1  0  0  0
 21 23  2  0  0  0
M  END
>  <CHROM.0>
-62.57687200,66.52747354,-8.48047117,61.09741097,167.98937493,-175.98040932
-157.68737743,-160.94554962

>  <CHROM.1>
-136.59727611,-61.22984272,178.01328642,49.43903695,3.86939374,129.65045512
53.35663649,-21.49749791,22.35646921,-13.20972492,2.45674866,0.42992727,0.34867405

>  <Name>
F6436-1059

>  <RI>
3.76119e+07

>  <Rbt.Current_Directory>
/home/adria/Escritorio/rDock_CMTR_LC/2pxcA_model/inputs_sah

>  <Rbt.Executable>
rbdock ($Id: //depot/dev/client3/rdock/2013.1/src/exe/rbdock.cxx#4 $)

>  <Rbt.Library>
libRbt.so (2013.1, Build901 2013/11/27)

>  <Rbt.Parameter_File>
/home/adria/Escritorio/rDock_2013.1_src/data/scripts/dock.prm

>  <Rbt.Receptor>
sah_rdock.prm

>  <SCORE>
-60.4257

>  <SCORE.INTER>
-14.7936

>  <SCORE.INTER.CONST>
1

>  <SCORE.INTER.POLAR>
-1.31676

>  <SCORE.INTER.REPUL>
0.0390833

>  <SCORE.INTER.ROT>
6

>  <SCORE.INTER.VDW>
-21.912

>  <SCORE.INTER.norm>
-0.643199

>  <SCORE.INTRA>
-43.3963

>  <SCORE.INTRA.DIHEDRAL>
-3.18916

>  <SCORE.INTRA.DIHEDRAL.0>
11.5557

>  <SCORE.INTRA.POLAR>
-0.690326

>  <SCORE.INTRA.POLAR.0>
0

>  <SCORE.INTRA.REPUL>
0

>  <SCORE.INTRA.REPUL.0>
0

>  <SCORE.INTRA.VDW>
-39.4547

>  <SCORE.INTRA.VDW.0>
38.632

>  <SCORE.INTRA.norm>
-1.8868

>  <SCORE.RESTR>
0

>  <SCORE.RESTR.CAVITY>
0

>  <SCORE.RESTR.norm>
0

>  <SCORE.SYSTEM>
-2.23574

>  <SCORE.SYSTEM.CONST>
0

>  <SCORE.SYSTEM.DIHEDRAL>
6.00767

>  <SCORE.SYSTEM.POLAR>
-4.25516

>  <SCORE.SYSTEM.VDW>
9.22795

>  <SCORE.SYSTEM.norm>
-0.0972062

>  <SCORE.heavy>
23

>  <SCORE.norm>
-2.6272

$$$$
F6436-1059
  rDOCK(R)          3D
libRbt.so/2013.1/901 2013/11/27
 25 26  0  0  0  0  0  0  0  0999 V2000
  -26.8930   23.3388   -9.4402 C   0  0  0  0  0  0
  -25.7208   24.1501   -9.7989 N   0  0  0  0  0  0
  -24.8100   24.4412   -8.8871 N   0  0  0  0  0  0
  -23.6435   24.7091   -9.5261 C   0  0  0  0  0  0
  -22.4699   24.5394   -8.5898 C   0  0  0  0  0  0
  -23.8670   24.9374  -10.9902 C   0  0  0  0  0  0
  -25.3487   24.3969  -11.1019 C   0  0  0  0  0  0
  -26.5709   23.7211  -12.0874 C   0  0  0  0  0  0
  -22.3531   25.3849  -12.3838 S   0  0  0  0  0  0
  -23.1081   25.6857  -13.6339 O   0  0  0  0  0  0
  -21.4064   26.6469  -11.9862 O   0  0  0  0  0  0
  -21.0896   24.4494  -12.8303 N   0  0  0  0  0  0
  -21.5605   23.0588  -12.8168 C   0  0  0  0  0  0
  -20.3157   22.1768  -13.0315 C   0  0  0  0  0  0
  -20.4785   20.3790  -12.6276 C   0  0  0  0  0  0
  -19.1532   19.9176  -12.4478 O   0  0  0  0  0  0
  -21.8090   19.3017  -11.9724 C   0  0  0  0  0  0
  -22.4278   17.9992  -12.1653 C   0  0  0  0  0  0
  -22.7407   17.0064  -13.2515 C   0  0  0  0  0  0
  -23.2899   17.6892  -11.0595 O   0  0  0  0  0  0
  -23.5688   18.8744  -10.4682 C   0  0  0  0  0  0
  -24.6308   19.2501   -9.4952 C   0  0  0  0  0  0
  -22.9702   19.7384  -11.2666 C   0  0  0  0  0  0
  -20.3873   24.5238  -12.0648 H   0  0  0  0  0  0
  -19.0038   19.3078  -13.1769 H   0  0  0  0  0  0
  1  2  1  0  0  0
  2  3  1  0  0  0
  2  7  1  0  0  0
  3  4  2  0  0  0
  4  5  1  0  0  0
  4  6  1  0  0  0
  6  7  2  0  0  0
  6  9  1  0  0  0
  7  8  1  0  0  0
  9 10  2  0  0  0
  9 11  2  0  0  0
  9 12  1  0  0  0
 12 13  1  0  0  0
 12 24  1  0  0  0
 13 14  1  0  0  0
 14 15  1  0  0  0
 15 16  1  0  0  0
 15 17  1  0  0  0
 16 25  1  0  0  0
 17 18  2  0  0  0
 17 23  1  0  0  0
 18 19  1  0  0  0
 18 20  1  0  0  0
 20 21  1  0  0  0
 21 22  1  0  0  0
 21 23  2  0  0  0
M  END
>  <CHROM.0>
-60.74220266,-74.43459891,-166.74618134,63.40577419,14.87055612,-57.93049341
-35.35371490,-161.21994423

>  <CHROM.1>
-172.99682196,35.07242513,-171.74455910,164.29154958,-159.80896497,-113.34845579
137.20257247,-22.98371902,22.44269984,-11.46308794,1.81893948,0.55583655
-0.02818176

>  <Name>
F6436-1059

>  <RI>
3.76119e+07

>  <Rbt.Current_Directory>
/home/adria/Escritorio/rDock_CMTR_LC/2pxcA_model/inputs_sah

>  <Rbt.Executable>
rbdock ($Id: //depot/dev/client3/rdock/2013.1/src/exe/rbdock.cxx#4 $)

>  <Rbt.Library>
libRbt.so (2013.1, Build901 2013/11/27)

>  <Rbt.Parameter_File>
/home/adria/Escritorio/rDock_2013.1_src/data/scripts/dock.prm

>  <Rbt.Receptor>
sah_rdock.prm

>  <SCORE>
-54.7419

>  <SCORE.INTER>
-17.0229

>  <SCORE.INTER.CONST>
1

>  <SCORE.INTER.POLAR>
-2.82098

>  <SCORE.INTER.REPUL>
0.00369492

>  <SCORE.INTER.ROT>
6

>  <SCORE.INTER.VDW>
-18.85

>  <SCORE.INTER.norm>
-0.740124

>  <SCORE.INTRA>
-42.0731

>  <SCORE.INTRA.DIHEDRAL>
-2.45721

>  <SCORE.INTRA.DIHEDRAL.0>
11.5557

>  <SCORE.INTRA.POLAR>
0

>  <SCORE.INTRA.POLAR.0>
0

>  <SCORE.INTRA.REPUL>
0

>  <SCORE.INTRA.REPUL.0>
0

>  <SCORE.INTRA.VDW>
-40.8445

>  <SCORE.INTRA.VDW.0>
38.632

>  <SCORE.INTRA.norm>
-1.82926

>  <SCORE.RESTR>
0

>  <SCORE.RESTR.CAVITY>
0

>  <SCORE.RESTR.norm>
0

>  <SCORE.SYSTEM>
4.35402

>  <SCORE.SYSTEM.CONST>
0

>  <SCORE.SYSTEM.DIHEDRAL>
9.42923

>  <SCORE.SYSTEM.POLAR>
-3.91733

>  <SCORE.SYSTEM.REPUL>
0.0409962

>  <SCORE.SYSTEM.VDW>
12.7533

>  <SCORE.SYSTEM.norm>
0.189305

>  <SCORE.heavy>
23

>  <SCORE.norm>
-2.38008

$$$$
F6436-1059
  rDOCK(R)          3D
libRbt.so/2013.1/901 2013/11/27
 25 26  0  0  0  0  0  0  0  0999 V2000
  -27.1391   23.3175   -9.4531 C   0  0  0  0  0  0
  -25.9523   24.1100   -9.8057 N   0  0  0  0  0  0
  -25.0220   24.3526   -8.8994 N   0  0  0  0  0  0
  -23.8583   24.6102   -9.5475 C   0  0  0  0  0  0
  -22.6762   24.3852   -8.6336 C   0  0  0  0  0  0
  -24.0964   24.8860  -11.0011 C   0  0  0  0  0  0
  -25.5924   24.3851  -11.1065 C   0  0  0  0  0  0
  -26.8445   23.7679  -12.0927 C   0  0  0  0  0  0
  -22.5915   25.3364  -12.4034 S   0  0  0  0  0  0
  -23.3536   25.6221  -13.6528 O   0  0  0  0  0  0
  -21.6540   26.6092  -12.0182 O   0  0  0  0  0  0
  -21.3217   24.4086  -12.8481 N   0  0  0  0  0  0
  -21.6337   23.0326  -12.4418 C   0  0  0  0  0  0
  -20.3272   22.2296  -12.5888 C   0  0  0  0  0  0
  -19.9267   21.5747  -14.2718 C   0  0  0  0  0  0
  -19.2640   22.6347  -14.9344 O   0  0  0  0  0  0
  -19.7424   19.9101  -15.0169 C   0  0  0  0  0  0
  -20.2675   18.5556  -14.9389 C   0  0  0  0  0  0
  -20.8391   17.5820  -13.9445 C   0  0  0  0  0  0
  -19.8235   17.7842  -16.0659 O   0  0  0  0  0  0
  -18.7376   18.4319  -16.5489 C   0  0  0  0  0  0
  -17.6700   17.9791  -17.4822 C   0  0  0  0  0  0
  -18.5802   19.4115  -15.6784 C   0  0  0  0  0  0
  -20.5195   24.7095  -12.2558 H   0  0  0  0  0  0
  -18.4230   22.2616  -15.2159 H   0  0  0  0  0  0
  1  2  1  0  0  0
  2  3  1  0  0  0
  2  7  1  0  0  0
  3  4  2  0  0  0
  4  5  1  0  0  0
  4  6  1  0  0  0
  6  7  2  0  0  0
  6  9  1  0  0  0
  7  8  1  0  0  0
  9 10  2  0  0  0
  9 11  2  0  0  0
  9 12  1  0  0  0
 12 13  1  0  0  0
 12 24  1  0  0  0
 13 14  1  0  0  0
 14 15  1  0  0  0
 15 16  1  0  0  0
 15 17  1  0  0  0
 16 25  1  0  0  0
 17 18  2  0  0  0
 17 23  1  0  0  0
 18 19  1  0  0  0
 18 20  1  0  0  0
 20 21  1  0  0  0
 21 22  1  0  0  0
 21 23  2  0  0  0
M  END
>  <CHROM.0>
-60.96325230,63.54507876,-165.47766324,67.10157239,-31.03290224,-57.97082823
-156.37285212,-161.01745099

>  <CHROM.1>
-175.84292121,18.32589845,-168.26856351,-83.67100092,85.46731505,124.29214358
33.87438877,-22.06065749,22.58512758,-12.82870038,2.34785047,0.60052864,0.22993114

>  <Name>
F6436-1059

>  <RI>
3.76119e+07

>  <Rbt.Current_Directory>
/home/adria/Escritorio/rDock_CMTR_LC/2pxcA_model/inputs_sah

>  <Rbt.Executable>
rbdock ($Id: //depot/dev/client3/rdock/2013.1/src/exe/rbdock.cxx#4 $)

>  <Rbt.Library>
libRbt.so (2013.1, Build901 2013/11/27)

>  <Rbt.Parameter_File>
/home/adria/Escritorio/rDock_2013.1_src/data/scripts/dock.prm

>  <Rbt.Receptor>
sah_rdock.prm

>  <SCORE>
-66.353

>  <SCORE.INTER>
-18.1522

>  <SCORE.INTER.CONST>
1

>  <SCORE.INTER.POLAR>
-2.6388

>  <SCORE.INTER.REPUL>
0

>  <SCORE.INTER.ROT>
6

>  <SCORE.INTER.VDW>
-20.5802

>  <SCORE.INTER.norm>
-0.789224

>  <SCORE.INTRA>
-40.9727

>  <SCORE.INTRA.DIHEDRAL>
-0.497795

>  <SCORE.INTRA.DIHEDRAL.0>
11.5557

>  <SCORE.INTRA.POLAR>
0

>  <SCORE.INTRA.POLAR.0>
0

>  <SCORE.INTRA.REPUL>
0

>  <SCORE.INTRA.REPUL.0>
0

>  <SCORE.INTRA.VDW>
-40.7238

>  <SCORE.INTRA.VDW.0>
38.632

>  <SCORE.INTRA.norm>
-1.78142

>  <SCORE.RESTR>
0

>  <SCORE.RESTR.CAVITY>
0

>  <SCORE.RESTR.norm>
0

>  <SCORE.SYSTEM>
-7.22816

>  <SCORE.SYSTEM.CONST>
0

>  <SCORE.SYSTEM.DIHEDRAL>
5.94232

>  <SCORE.SYSTEM.POLAR>
-3.7294

>  <SCORE.SYSTEM.VDW>
2.48063

>  <SCORE.SYSTEM.norm>
-0.314268

>  <SCORE.heavy>
23

>  <SCORE.norm>
-2.88491

$$$$
F6436-1059
  rDOCK(R)          3D
libRbt.so/2013.1/901 2013/11/27
 25 26  0  0  0  0  0  0  0  0999 V2000
  -17.2876   17.5855  -16.6980 C   0  0  0  0  0  0
  -17.8557   18.1137  -15.4493 N   0  0  0  0  0  0
  -17.8022   19.4082  -15.1902 N   0  0  0  0  0  0
  -18.7956   19.7048  -14.3150 C   0  0  0  0  0  0
  -19.1332   21.1766  -14.3684 C   0  0  0  0  0  0
  -19.3511   18.4643  -13.6840 C   0  0  0  0  0  0
  -18.7056   17.3872  -14.6448 C   0  0  0  0  0  0
  -18.7872   15.8202  -15.3225 C   0  0  0  0  0  0
  -20.9054   18.4283  -12.2637 S   0  0  0  0  0  0
  -22.0533   17.8482  -13.0180 O   0  0  0  0  0  0
  -20.6015   17.5367  -10.9372 O   0  0  0  0  0  0
  -21.5119   19.6799  -11.4055 N   0  0  0  0  0  0
  -21.5965   20.8253  -12.3202 C   0  0  0  0  0  0
  -22.9163   21.5481  -11.9900 C   0  0  0  0  0  0
  -22.8484   22.8799  -10.7080 C   0  0  0  0  0  0
  -23.8735   22.5608   -9.7866 O   0  0  0  0  0  0
  -21.5863   24.0793  -10.1348 C   0  0  0  0  0  0
  -21.4451   25.3492   -9.4391 C   0  0  0  0  0  0
  -22.1637   26.6559   -9.2402 C   0  0  0  0  0  0
  -20.0708   25.5743   -9.0883 O   0  0  0  0  0  0
  -19.3479   24.7707   -9.9029 C   0  0  0  0  0  0
  -17.8984   24.7794  -10.2416 C   0  0  0  0  0  0
  -20.2764   24.2419  -10.6778 C   0  0  0  0  0  0
  -20.7872   19.9274  -10.6995 H   0  0  0  0  0  0
  -23.4301   22.5047   -8.9346 H   0  0  0  0  0  0
  1  2  1  0  0  0
  2  3  1  0  0  0
  2  7  1  0  0  0
  3  4  2  0  0  0
  4  5  1  0  0  0
  4  6  1  0  0  0
  6  7  2  0  0  0
  6  9  1  0  0  0
  7  8  1  0  0  0
  9 10  2  0  0  0
  9 11  2  0  0  0
  9 12  1  0  0  0
 12 13  1  0  0  0
 12 24  1  0  0  0
 13 14  1  0  0  0
 14 15  1  0  0  0
 15 16  1  0  0  0
 15 17  1  0  0  0
 16 25  1  0  0  0
 17 18  2  0  0  0
 17 23  1  0  0  0
 18 19  1  0  0  0
 18 20  1  0  0  0
 20 21  1  0  0  0
 21 22  1  0  0  0
 21 23  2  0  0  0
M  END
>  <CHROM.0>
-56.21401091,-164.35895984,112.41749576,64.61847731,-29.60693919,-57.63480227
-162.94497015,-161.35921385

>  <CHROM.1>
109.08683727,40.86788759,140.44772059,89.96855297,-128.51668391,123.99575659
158.44465018,-20.35984344,20.88699302,-12.19342142,-1.26599112,0.53150415
0.44789683

>  <Name>
F6436-1059

>  <RI>
3.76119e+07

>  <Rbt.Current_Directory>
/home/adria/Escritorio/rDock_CMTR_LC/2pxcA_model/inputs_sah

>  <Rbt.Executable>
rbdock ($Id: //depot/dev/client3/rdock/2013.1/src/exe/rbdock.cxx#4 $)

>  <Rbt.Library>
libRbt.so (2013.1, Build901 2013/11/27)

>  <Rbt.Parameter_File>
/home/adria/Escritorio/rDock_2013.1_src/data/scripts/dock.prm

>  <Rbt.Receptor>
sah_rdock.prm

>  <SCORE>
-61.3121

>  <SCORE.INTER>
-15.2439

>  <SCORE.INTER.CONST>
1

>  <SCORE.INTER.POLAR>
-1.59044

>  <SCORE.INTER.REPUL>
0

>  <SCORE.INTER.ROT>
6

>  <SCORE.INTER.VDW>
-21.2364

>  <SCORE.INTER.norm>
-0.662779

>  <SCORE.INTRA>
-40.2039

>  <SCORE.INTRA.DIHEDRAL>
1.36149

>  <SCORE.INTRA.DIHEDRAL.0>
11.5557

>  <SCORE.INTRA.POLAR>
0

>  <SCORE.INTRA.POLAR.0>
0

>  <SCORE.INTRA.REPUL>
0

>  <SCORE.INTRA.REPUL.0>
0

>  <SCORE.INTRA.VDW>
-40.8847

>  <SCORE.INTRA.VDW.0>
38.632

>  <SCORE.INTRA.norm>
-1.748

>  <SCORE.RESTR>
0

>  <SCORE.RESTR.CAVITY>
0

>  <SCORE.RESTR.norm>
0

>  <SCORE.SYSTEM>
-5.86432

>  <SCORE.SYSTEM.CONST>
0

>  <SCORE.SYSTEM.DIHEDRAL>
9.62638

>  <SCORE.SYSTEM.POLAR>
-4.16578

>  <SCORE.SYSTEM.VDW>
3.48613

>  <SCORE.SYSTEM.norm>
-0.25497

>  <SCORE.heavy>
23

>  <SCORE.norm>
-2.66575

$$$$
F6436-1059
  rDOCK(R)          3D
libRbt.so/2013.1/901 2013/11/27
 25 26  0  0  0  0  0  0  0  0999 V2000
  -22.2718   25.3112  -12.3006 C   0  0  0  0  0  0
  -22.7067   24.5591  -11.1148 N   0  0  0  0  0  0
  -23.8154   24.8993  -10.4818 N   0  0  0  0  0  0
  -24.2669   23.8121   -9.8073 C   0  0  0  0  0  0
  -25.7403   23.9469   -9.5011 C   0  0  0  0  0  0
  -23.2090   22.7550   -9.7118 C   0  0  0  0  0  0
  -22.1882   23.3293  -10.7739 C   0  0  0  0  0  0
  -20.9253   23.0158  -11.8821 C   0  0  0  0  0  0
  -23.4494   20.8941   -8.7561 S   0  0  0  0  0  0
  -22.7476   21.0781   -7.4534 O   0  0  0  0  0  0
  -24.9933   20.4490   -8.5002 O   0  0  0  0  0  0
  -23.0100   19.4185   -9.3042 N   0  0  0  0  0  0
  -22.6401   19.5788  -10.7160 C   0  0  0  0  0  0
  -21.6730   18.4256  -11.0450 C   0  0  0  0  0  0
  -21.5366   17.9222  -12.8199 C   0  0  0  0  0  0
  -22.5872   16.9971  -13.0249 O   0  0  0  0  0  0
  -20.7811   18.6401  -14.3278 C   0  0  0  0  0  0
  -21.0990   19.0363  -15.6911 C   0  0  0  0  0  0
  -21.9986   18.6571  -16.8358 C   0  0  0  0  0  0
  -20.0263   19.8128  -16.2466 O   0  0  0  0  0  0
  -18.9383   19.5265  -15.4940 C   0  0  0  0  0  0
  -17.4903   19.7579  -15.7498 C   0  0  0  0  0  0
  -19.3966   18.6012  -14.6720 C   0  0  0  0  0  0
  -23.8734   18.8359   -9.2964 H   0  0  0  0  0  0
  -22.5168   16.3780  -12.2917 H   0  0  0  0  0  0
  1  2  1  0  0  0
  2  3  1  0  0  0
  2  7  1  0  0  0
  3  4  2  0  0  0
  4  5  1  0  0  0
  4  6  1  0  0  0
  6  7  2  0  0  0
  6  9  1  0  0  0
  7  8  1  0  0  0
  9 10  2  0  0  0
  9 11  2  0  0  0
  9 12  1  0  0  0
 12 13  1  0  0  0
 12 24  1  0  0  0
 13 14  1  0  0  0
 14 15  1  0  0  0
 15 16  1  0  0  0
 15 17  1  0  0  0
 16 25  1  0  0  0
 17 18  2  0  0  0
 17 23  1  0  0  0
 18 19  1  0  0  0
 18 20  1  0  0  0
 20 21  1  0  0  0
 21 22  1  0  0  0
 21 23  2  0  0  0
M  END
>  <CHROM.0>
177.12265639,-69.99820087,81.01575635,66.00033100,-30.18165763,-54.71944068
-35.51477228,-165.68183157

>  <CHROM.1>
-102.10407351,-10.73579504,155.33755032,156.43766061,-85.65525356,-48.53143363
-124.91390632,-22.17163076,20.86194004,-11.80017482,-2.71862896,-1.03855545
3.05665678

>  <Name>
F6436-1059

>  <RI>
3.76119e+07

>  <Rbt.Current_Directory>
/home/adria/Escritorio/rDock_CMTR_LC/2pxcA_model/inputs_sah

>  <Rbt.Executable>
rbdock ($Id: //depot/dev/client3/rdock/2013.1/src/exe/rbdock.cxx#4 $)

>  <Rbt.Library>
libRbt.so (2013.1, Build901 2013/11/27)

>  <Rbt.Parameter_File>
/home/adria/Escritorio/rDock_2013.1_src/data/scripts/dock.prm

>  <Rbt.Receptor>
sah_rdock.prm

>  <SCORE>
-62.3416

>  <SCORE.INTER>
-16.3532

>  <SCORE.INTER.CONST>
1

>  <SCORE.INTER.POLAR>
-2.96684

>  <SCORE.INTER.REPUL>
0.278772

>  <SCORE.INTER.ROT>
6

>  <SCORE.INTER.VDW>
-19.0598

>  <SCORE.INTER.norm>
-0.711008

>  <SCORE.INTRA>
-39.0858

>  <SCORE.INTRA.DIHEDRAL>
3.22883

>  <SCORE.INTRA.DIHEDRAL.0>
11.5557

>  <SCORE.INTRA.POLAR>
0

>  <SCORE.INTRA.POLAR.0>
0

>  <SCORE.INTRA.REPUL>
0

>  <SCORE.INTRA.REPUL.0>
0

>  <SCORE.INTRA.VDW>
-40.7003

>  <SCORE.INTRA.VDW.0>
38.632

>  <SCORE.INTRA.norm>
-1.69938

>  <SCORE.RESTR>
0

>  <SCORE.RESTR.CAVITY>
0

>  <SCORE.RESTR.norm>
0

>  <SCORE.SYSTEM>
-6.90252

>  <SCORE.SYSTEM.CONST>
0

>  <SCORE.SYSTEM.DIHEDRAL>
6.89857

>  <SCORE.SYSTEM.POLAR>
-4.00808

>  <SCORE.SYSTEM.REPUL>
0.0327404

>  <SCORE.SYSTEM.VDW>
3.11195

>  <SCORE.SYSTEM.norm>
-0.30011

>  <SCORE.heavy>
23

>  <SCORE.norm>
-2.7105

$$$$
F6436-1059
  rDOCK(R)          3D
libRbt.so/2013.1/901 2013/11/27
 25 26  0  0  0  0  0  0  0  0999 V2000
  -27.1112   22.8727   -9.7427 C   0  0  0  0  0  0
  -25.8972   23.6514   -9.4584 N   0  0  0  0  0  0
  -25.2580   23.4912   -8.3132 N   0  0  0  0  0  0
  -23.9695   23.8770   -8.4915 C   0  0  0  0  0  0
  -23.0765   23.2599   -7.4405 C   0  0  0  0  0  0
  -23.8090   24.6643   -9.7564 C   0  0  0  0  0  0
  -25.2035   24.3413  -10.4280 C   0  0  0  0  0  0
  -26.1192   24.2032  -11.8646 C   0  0  0  0  0  0
  -21.9919   25.4716  -10.4497 S   0  0  0  0  0  0
  -22.4160   26.6814  -11.2111 O   0  0  0  0  0  0
  -20.9371   25.8878   -9.2830 O   0  0  0  0  0  0
  -20.8492   24.7394  -11.3603 N   0  0  0  0  0  0
  -21.4057   23.4508  -11.7910 C   0  0  0  0  0  0
  -20.4398   22.8945  -12.8545 C   0  0  0  0  0  0
  -20.5753   21.0934  -13.2544 C   0  0  0  0  0  0
  -21.9577   20.8007  -13.1845 O   0  0  0  0  0  0
  -19.5283   19.8651  -14.1233 C   0  0  0  0  0  0
  -18.3811   19.7620  -15.0121 C   0  0  0  0  0  0
  -17.7058   20.5015  -16.1349 C   0  0  0  0  0  0
  -17.9206   18.4032  -15.0747 O   0  0  0  0  0  0
  -18.9608   17.6439  -14.6581 C   0  0  0  0  0  0
  -19.2158   16.1838  -14.7956 C   0  0  0  0  0  0
  -19.9147   18.5393  -14.4837 C   0  0  0  0  0  0
  -20.0634   24.5132  -10.7151 H   0  0  0  0  0  0
  -22.2574   20.8080  -14.0988 H   0  0  0  0  0  0
  1  2  1  0  0  0
  2  3  1  0  0  0
  2  7  1  0  0  0
  3  4  2  0  0  0
  4  5  1  0  0  0
  4  6  1  0  0  0
  6  7  2  0  0  0
  6  9  1  0  0  0
  7  8  1  0  0  0
  9 10  2  0  0  0
  9 11  2  0  0  0
  9 12  1  0  0  0
 12 13  1  0  0  0
 12 24  1  0  0  0
 13 14  1  0  0  0
 14 15  1  0  0  0
 15 16  1  0  0  0
 15 17  1  0  0  0
 16 25  1  0  0  0
 17 18  2  0  0  0
 17 23  1  0  0  0
 18 19  1  0  0  0
 18 20  1  0  0  0
 20 21  1  0  0  0
 21 22  1  0  0  0
 21 23  2  0  0  0
M  END
>  <CHROM.0>
-61.05982670,67.11083258,-7.10638596,64.52172490,169.10658594,-59.73902190
85.28573793,-161.39369919

>  <CHROM.1>
-150.34176958,8.30722793,169.55689180,163.07954308,36.44568675,99.48306235
-14.58461636,-21.86139387,22.48169170,-11.79499048,2.24316160,0.44478063
0.40768730

>  <Name>
F6436-1059

>  <RI>
3.76119e+07

>  <Rbt.Current_Directory>
/home/adria/Escritorio/rDock_CMTR_LC/2pxcA_model/inputs_sah

>  <Rbt.Executable>
rbdock ($Id: //depot/dev/client3/rdock/2013.1/src/exe/rbdock.cxx#4 $)

>  <Rbt.Library>
libRbt.so (2013.1, Build901 2013/11/27)

>  <Rbt.Parameter_File>
/home/adria/Escritorio/rDock_2013.1_src/data/scripts/dock.prm

>  <Rbt.Receptor>
sah_rdock.prm

>  <SCORE>
-53.6238

>  <SCORE.INTER>
-11.0851

>  <SCORE.INTER.CONST>
1

>  <SCORE.INTER.POLAR>
-1.19328

>  <SCORE.INTER.REPUL>
0

>  <SCORE.INTER.ROT>
6

>  <SCORE.INTER.VDW>
-18.428

>  <SCORE.INTER.norm>
-0.481961

>  <SCORE.INTRA>
-40.7117

>  <SCORE.INTRA.DIHEDRAL>
-0.0828123

>  <SCORE.INTRA.DIHEDRAL.0>
11.5557

>  <SCORE.INTRA.POLAR>
0

>  <SCORE.INTRA.POLAR.0>
0

>  <SCORE.INTRA.REPUL>
0

>  <SCORE.INTRA.REPUL.0>
0

>  <SCORE.INTRA.VDW>
-40.6703

>  <SCORE.INTRA.VDW.0>
38.632

>  <SCORE.INTRA.norm>
-1.77008

>  <SCORE.RESTR>
0

>  <SCORE.RESTR.CAVITY>
0

>  <SCORE.RESTR.norm>
0

>  <SCORE.SYSTEM>
-1.82692

>  <SCORE.SYSTEM.CONST>
0

>  <SCORE.SYSTEM.DIHEDRAL>
6.24854

>  <SCORE.SYSTEM.POLAR>
-4.18815

>  <SCORE.SYSTEM.VDW>
9.28852

>  <SCORE.SYSTEM.norm>
-0.0794313

>  <SCORE.heavy>
23

>  <SCORE.norm>
-2.33147

$$$$
F6436-1059
  rDOCK(R)          3D
libRbt.so/2013.1/901 2013/11/27
 25 26  0  0  0  0  0  0  0  0999 V2000
  -14.6745   18.5640  -17.8922 C   0  0  0  0  0  0
  -15.9035   18.7573  -17.1091 N   0  0  0  0  0  0
  -16.7395   19.7337  -17.4146 N   0  0  0  0  0  0
  -17.9675   19.4010  -16.9434 C   0  0  0  0  0  0
  -19.0457   20.1681  -17.6727 C   0  0  0  0  0  0
  -17.8841   18.2720  -15.9615 C   0  0  0  0  0  0
  -16.3993   17.8076  -16.2433 C   0  0  0  0  0  0
  -15.2456   16.5472  -16.2000 C   0  0  0  0  0  0
  -19.5320   17.4162  -14.9683 S   0  0  0  0  0  0
  -20.3029   16.7675  -16.0675 O   0  0  0  0  0  0
  -19.1515   16.3178  -13.8299 O   0  0  0  0  0  0
  -20.6337   18.1640  -14.0208 N   0  0  0  0  0  0
  -19.8977   19.1103  -13.1733 C   0  0  0  0  0  0
  -20.9114   19.6552  -12.1491 C   0  0  0  0  0  0
  -22.4113   20.5051  -12.8200 C   0  0  0  0  0  0
  -23.2893   19.4630  -13.2005 O   0  0  0  0  0  0
  -23.1551   22.1718  -12.6497 C   0  0  0  0  0  0
  -22.8277   23.5867  -12.7363 C   0  0  0  0  0  0
  -21.6859   24.5362  -12.4952 C   0  0  0  0  0  0
  -24.0278   24.3754  -12.7454 O   0  0  0  0  0  0
  -24.9930   23.5807  -12.2268 C   0  0  0  0  0  0
  -26.3422   23.9115  -11.6920 C   0  0  0  0  0  0
  -24.3188   22.4971  -11.8901 C   0  0  0  0  0  0
  -21.0096   17.4343  -13.3796 H   0  0  0  0  0  0
  -24.0511   19.5588  -12.6207 H   0  0  0  0  0  0
  1  2  1  0  0  0
  2  3  1  0  0  0
  2  7  1  0  0  0
  3  4  2  0  0  0
  4  5  1  0  0  0
  4  6  1  0  0  0
  6  7  2  0  0  0
  6  9  1  0  0  0
  7  8  1  0  0  0
  9 10  2  0  0  0
  9 11  2  0  0  0
  9 12  1  0  0  0
 12 13  1  0  0  0
 12 24  1  0  0  0
 13 14  1  0  0  0
 14 15  1  0  0  0
 15 16  1  0  0  0
 15 17  1  0  0  0
 16 25  1  0  0  0
 17 18  2  0  0  0
 17 23  1  0  0  0
 18 19  1  0  0  0
 18 20  1  0  0  0
 20 21  1  0  0  0
 21 22  1  0  0  0
 21 23  2  0  0  0
M  END
>  <CHROM.0>
-64.35577656,-72.49489232,-47.29423987,66.76057448,-30.15975555,-64.16204653
-36.12562381,-159.92068743

>  <CHROM.1>
66.53420060,-41.89909155,-171.92757323,-58.38920687,79.92731979,115.52970877
50.38761956,-20.28350327,19.86453936,-14.46994186,-0.47454875,0.60569094
-0.15054392

>  <Name>
F6436-1059

>  <RI>
3.76119e+07

>  <Rbt.Current_Directory>
/home/adria/Escritorio/rDock_CMTR_LC/2pxcA_model/inputs_sah

>  <Rbt.Executable>
rbdock ($Id: //depot/dev/client3/rdock/2013.1/src/exe/rbdock.cxx#4 $)

>  <Rbt.Library>
libRbt.so (2013.1, Build901 2013/11/27)

>  <Rbt.Parameter_File>
/home/adria/Escritorio/rDock_2013.1_src/data/scripts/dock.prm

>  <Rbt.Receptor>
sah_rdock.prm

>  <SCORE>
-62.9199

>  <SCORE.INTER>
-13.1852

>  <SCORE.INTER.CONST>
1

>  <SCORE.INTER.POLAR>
-1.59813

>  <SCORE.INTER.REPUL>
0.0131272

>  <SCORE.INTER.ROT>
6

>  <SCORE.INTER.VDW>
-19.2172

>  <SCORE.INTER.norm>
-0.573272

>  <SCORE.INTRA>
-42.1566

>  <SCORE.INTRA.DIHEDRAL>
-3.38766

>  <SCORE.INTRA.DIHEDRAL.0>
11.5557

>  <SCORE.INTRA.POLAR>
0

>  <SCORE.INTRA.POLAR.0>
0

>  <SCORE.INTRA.REPUL>
0

>  <SCORE.INTRA.REPUL.0>
0

>  <SCORE.INTRA.VDW>
-40.4628

>  <SCORE.INTRA.VDW.0>
38.632

>  <SCORE.INTRA.norm>
-1.8329

>  <SCORE.RESTR>
0

>  <SCORE.RESTR.CAVITY>
0

>  <SCORE.RESTR.norm>
0

>  <SCORE.SYSTEM>
-7.57809

>  <SCORE.SYSTEM.CONST>
0

>  <SCORE.SYSTEM.DIHEDRAL>
6.85434

>  <SCORE.SYSTEM.POLAR>
-4.04267

>  <SCORE.SYSTEM.REPUL>
0.0376211

>  <SCORE.SYSTEM.VDW>
2.55171

>  <SCORE.SYSTEM.norm>
-0.329482

>  <SCORE.heavy>
23

>  <SCORE.norm>
-2.73565

$$$$
