F0717-1560
  rDOCK(R)          3D
libRbt.so/2013.1/901 2013/11/27
 20 21  0  0  0  0  0  0  0  0999 V2000
  -23.8187   23.4350  -10.4061 C   0  0  0  0  0  0
  -22.3860   23.6980  -10.2759 N   0  0  0  0  0  0
  -22.0934   25.3188   -9.4046 C   0  0  0  0  0  0
  -20.2194   25.7651   -9.7830 C   0  0  0  0  0  0
  -19.4715   24.3644  -10.8129 C   0  0  0  0  0  0
  -20.7552   23.2133  -11.1064 C   0  0  0  0  0  0
  -20.4351   21.9901  -11.8100 C   0  0  0  0  0  0
  -21.2841   22.1789  -12.9756 C   0  0  0  0  0  0
  -21.3214   23.2174  -13.6293 O   0  0  0  0  0  0
  -21.8807   20.9737  -13.3406 N   0  0  0  0  0  0
  -21.5879   19.6388  -12.8480 N   0  0  0  0  0  0
  -20.9182   18.6105  -13.4213 C   0  0  0  0  0  0
  -20.1435   18.2547  -15.0132 C   0  0  0  0  0  0
  -19.0984   16.5724  -15.6231 C   0  0  0  0  0  0
  -18.8397   15.3921  -14.9023 F   0  0  0  0  0  0
  -17.9995   16.5804  -16.9203 C   0  0  0  0  0  0
  -17.7856   18.0944  -17.6887 C   0  0  0  0  0  0
  -18.5857   19.6256  -17.2025 C   0  0  0  0  0  0
  -19.7718   19.7749  -15.8875 C   0  0  0  0  0  0
  -22.4987   21.0617  -14.1417 H   0  0  0  0  0  0
  1  2  1  0  0  0
  2  3  1  0  0  0
  2  6  1  0  0  0
  3  4  2  0  0  0
  4  5  1  0  0  0
  5  6  2  0  0  0
  6  7  1  0  0  0
  7  8  1  0  0  0
  8  9  2  0  0  0
  8 10  1  0  0  0
 10 11  1  0  0  0
 10 20  1  0  0  0
 11 12  2  0  0  0
 12 13  1  0  0  0
 13 14  2  0  0  0
 13 19  1  0  0  0
 14 15  1  0  0  0
 14 16  1  0  0  0
 16 17  2  0  0  0
 17 18  1  0  0  0
 18 19  2  0  0  0
M  END
>  <CHROM.0>
-178.54091200,66.66103027,-46.72780850,62.76842989,-29.84900439,-58.63987588
81.51234596,-165.65422548

>  <CHROM.1>
68.98609681,48.38014642,-104.70138553,177.61308446,-20.46842348,20.82333414
-13.31436123,2.02323392,0.81863440,0.33258490

>  <Name>
F0717-1560

>  <RI>
2.78961e+07

>  <Rbt.Current_Directory>
/home/adria/Escritorio/rDock_CMTR_LC/2pxcA_model/inputs_sah

>  <Rbt.Executable>
rbdock ($Id: //depot/dev/client3/rdock/2013.1/src/exe/rbdock.cxx#4 $)

>  <Rbt.Library>
libRbt.so (2013.1, Build901 2013/11/27)

>  <Rbt.Parameter_File>
/home/adria/Escritorio/rDock_2013.1_src/data/scripts/dock.prm

>  <Rbt.Receptor>
sah_rdock.prm

>  <SCORE>
-304.833

>  <SCORE.INTER>
-8.06316

>  <SCORE.INTER.CONST>
1

>  <SCORE.INTER.POLAR>
-0.294133

>  <SCORE.INTER.REPUL>
0

>  <SCORE.INTER.ROT>
4

>  <SCORE.INTER.VDW>
-16.4631

>  <SCORE.INTER.norm>
-0.424377

>  <SCORE.INTRA>
-290.092

>  <SCORE.INTRA.DIHEDRAL>
-1.64544

>  <SCORE.INTRA.DIHEDRAL.0>
9.32597

>  <SCORE.INTRA.POLAR>
0

>  <SCORE.INTRA.POLAR.0>
0

>  <SCORE.INTRA.REPUL>
0

>  <SCORE.INTRA.REPUL.0>
0

>  <SCORE.INTRA.VDW>
-289.269

>  <SCORE.INTRA.VDW.0>
288.22

>  <SCORE.INTRA.norm>
-15.268

>  <SCORE.RESTR>
0

>  <SCORE.RESTR.CAVITY>
0

>  <SCORE.RESTR.norm>
0

>  <SCORE.SYSTEM>
-6.67819

>  <SCORE.SYSTEM.CONST>
0

>  <SCORE.SYSTEM.DIHEDRAL>
5.63628

>  <SCORE.SYSTEM.POLAR>
-3.59584

>  <SCORE.SYSTEM.VDW>
2.72953

>  <SCORE.SYSTEM.norm>
-0.351484

>  <SCORE.heavy>
19

>  <SCORE.norm>
-16.0439

$$$$
F0717-1560
  rDOCK(R)          3D
libRbt.so/2013.1/901 2013/11/27
 20 21  0  0  0  0  0  0  0  0999 V2000
  -21.3592   17.2571  -13.5564 C   0  0  0  0  0  0
  -21.0984   18.4665  -12.7767 N   0  0  0  0  0  0
  -22.0400   18.4265  -11.1695 C   0  0  0  0  0  0
  -22.0141   20.2796  -10.5219 C   0  0  0  0  0  0
  -21.0129   21.3219  -11.7439 C   0  0  0  0  0  0
  -20.5341   20.2539  -13.0436 C   0  0  0  0  0  0
  -19.6792   20.7790  -14.0861 C   0  0  0  0  0  0
  -18.4483   20.0928  -13.7268 C   0  0  0  0  0  0
  -17.8061   20.3355  -12.7090 O   0  0  0  0  0  0
  -18.2242   19.0184  -14.5854 N   0  0  0  0  0  0
  -19.1298   18.4464  -15.5668 N   0  0  0  0  0  0
  -18.9523   17.4381  -16.4535 C   0  0  0  0  0  0
  -17.6046   16.3598  -16.9846 C   0  0  0  0  0  0
  -15.5575   16.6176  -16.7926 C   0  0  0  0  0  0
  -14.8609   17.6746  -16.1784 F   0  0  0  0  0  0
  -14.4236   15.8158  -17.7733 C   0  0  0  0  0  0
  -15.0879   14.7846  -18.9665 C   0  0  0  0  0  0
  -16.8405   14.5387  -19.2646 C   0  0  0  0  0  0
  -18.1436   15.2846  -18.3139 C   0  0  0  0  0  0
  -17.3634   18.5193  -14.3826 H   0  0  0  0  0  0
  1  2  1  0  0  0
  2  3  1  0  0  0
  2  6  1  0  0  0
  3  4  2  0  0  0
  4  5  1  0  0  0
  5  6  2  0  0  0
  6  7  1  0  0  0
  7  8  1  0  0  0
  8  9  2  0  0  0
  8 10  1  0  0  0
 10 11  1  0  0  0
 10 20  1  0  0  0
 11 12  2  0  0  0
 12 13  1  0  0  0
 13 14  2  0  0  0
 13 19  1  0  0  0
 14 15  1  0  0  0
 14 16  1  0  0  0
 16 17  2  0  0  0
 17 18  1  0  0  0
 18 19  2  0  0  0
M  END
>  <CHROM.0>
-175.33516457,-77.27607536,74.81257503,64.87703728,168.31766506,-175.65674478
-36.86966752,-160.31429315

>  <CHROM.1>
-65.49592950,-68.60628732,177.51842341,-20.29688915,-18.51510130,18.08843213
-14.93415766,2.21941276,0.33454670,0.71256058

>  <Name>
F0717-1560

>  <RI>
2.78961e+07

>  <Rbt.Current_Directory>
/home/adria/Escritorio/rDock_CMTR_LC/2pxcA_model/inputs_sah

>  <Rbt.Executable>
rbdock ($Id: //depot/dev/client3/rdock/2013.1/src/exe/rbdock.cxx#4 $)

>  <Rbt.Library>
libRbt.so (2013.1, Build901 2013/11/27)

>  <Rbt.Parameter_File>
/home/adria/Escritorio/rDock_2013.1_src/data/scripts/dock.prm

>  <Rbt.Receptor>
sah_rdock.prm

>  <SCORE>
-302.476

>  <SCORE.INTER>
-6.59835

>  <SCORE.INTER.CONST>
1

>  <SCORE.INTER.POLAR>
0

>  <SCORE.INTER.REPUL>
0

>  <SCORE.INTER.ROT>
4

>  <SCORE.INTER.VDW>
-15.9983

>  <SCORE.INTER.norm>
-0.347281

>  <SCORE.INTRA>
-293.473

>  <SCORE.INTRA.DIHEDRAL>
-7.0698

>  <SCORE.INTRA.DIHEDRAL.0>
9.32597

>  <SCORE.INTRA.POLAR>
0

>  <SCORE.INTRA.POLAR.0>
0

>  <SCORE.INTRA.REPUL>
0

>  <SCORE.INTRA.REPUL.0>
0

>  <SCORE.INTRA.VDW>
-289.938

>  <SCORE.INTRA.VDW.0>
288.22

>  <SCORE.INTRA.norm>
-15.4459

>  <SCORE.RESTR>
0

>  <SCORE.RESTR.CAVITY>
0

>  <SCORE.RESTR.norm>
0

>  <SCORE.SYSTEM>
-2.40443

>  <SCORE.SYSTEM.CONST>
0

>  <SCORE.SYSTEM.DIHEDRAL>
4.52415

>  <SCORE.SYSTEM.POLAR>
-4.04595

>  <SCORE.SYSTEM.REPUL>
0.0452612

>  <SCORE.SYSTEM.VDW>
8.86341

>  <SCORE.SYSTEM.norm>
-0.126549

>  <SCORE.heavy>
19

>  <SCORE.norm>
-15.9198

$$$$
F0717-1560
  rDOCK(R)          3D
libRbt.so/2013.1/901 2013/11/27
 20 21  0  0  0  0  0  0  0  0999 V2000
  -25.7185   20.4857   -8.4269 C   0  0  0  0  0  0
  -24.7638   21.4495   -8.9730 N   0  0  0  0  0  0
  -24.8973   23.0809   -8.0830 C   0  0  0  0  0  0
  -23.9789   24.3683   -9.2464 C   0  0  0  0  0  0
  -23.2956   23.4336  -10.7435 C   0  0  0  0  0  0
  -23.7971   21.7671  -10.5695 C   0  0  0  0  0  0
  -23.3363   20.8043  -11.5464 C   0  0  0  0  0  0
  -22.4730   20.0129  -10.6841 C   0  0  0  0  0  0
  -22.8265   18.9719  -10.1378 O   0  0  0  0  0  0
  -21.1670   20.4966  -10.7308 N   0  0  0  0  0  0
  -20.6031   21.4796  -11.6397 N   0  0  0  0  0  0
  -20.1494   21.3536  -12.9097 C   0  0  0  0  0  0
  -19.8947   20.0213  -14.1018 C   0  0  0  0  0  0
  -20.3255   18.0015  -13.9321 C   0  0  0  0  0  0
  -20.9280   17.3209  -12.8580 F   0  0  0  0  0  0
  -19.5746   16.8079  -14.8817 C   0  0  0  0  0  0
  -18.4021   17.3832  -15.9876 C   0  0  0  0  0  0
  -17.9035   19.0976  -16.1707 C   0  0  0  0  0  0
  -18.6080   20.4585  -15.2709 C   0  0  0  0  0  0
  -20.5306   19.9839  -10.1279 H   0  0  0  0  0  0
  1  2  1  0  0  0
  2  3  1  0  0  0
  2  6  1  0  0  0
  3  4  2  0  0  0
  4  5  1  0  0  0
  5  6  2  0  0  0
  6  7  1  0  0  0
  7  8  1  0  0  0
  8  9  2  0  0  0
  8 10  1  0  0  0
 10 11  1  0  0  0
 10 20  1  0  0  0
 11 12  2  0  0  0
 12 13  1  0  0  0
 13 14  2  0  0  0
 13 19  1  0  0  0
 14 15  1  0  0  0
 14 16  1  0  0  0
 16 17  2  0  0  0
 17 18  1  0  0  0
 18 19  2  0  0  0
M  END
>  <CHROM.0>
-58.93804264,-69.52475426,111.32829551,64.18743921,-29.69967615,57.15748930
-155.64147443,-160.62628838

>  <CHROM.1>
-60.50557771,96.17700506,-81.08755094,2.76944733,-21.75209529,20.28824303
-11.88323424,2.61761168,0.78834767,0.11256483

>  <Name>
F0717-1560

>  <RI>
2.78961e+07

>  <Rbt.Current_Directory>
/home/adria/Escritorio/rDock_CMTR_LC/2pxcA_model/inputs_sah

>  <Rbt.Executable>
rbdock ($Id: //depot/dev/client3/rdock/2013.1/src/exe/rbdock.cxx#4 $)

>  <Rbt.Library>
libRbt.so (2013.1, Build901 2013/11/27)

>  <Rbt.Parameter_File>
/home/adria/Escritorio/rDock_2013.1_src/data/scripts/dock.prm

>  <Rbt.Receptor>
sah_rdock.prm

>  <SCORE>
-306.013

>  <SCORE.INTER>
-8.19203

>  <SCORE.INTER.CONST>
1

>  <SCORE.INTER.POLAR>
-1.41281

>  <SCORE.INTER.REPUL>
0.0353153

>  <SCORE.INTER.ROT>
4

>  <SCORE.INTER.VDW>
-12.9651

>  <SCORE.INTER.norm>
-0.431159

>  <SCORE.INTRA>
-290.32

>  <SCORE.INTRA.DIHEDRAL>
-0.066241

>  <SCORE.INTRA.DIHEDRAL.0>
9.32597

>  <SCORE.INTRA.POLAR>
0

>  <SCORE.INTRA.POLAR.0>
0

>  <SCORE.INTRA.REPUL>
0

>  <SCORE.INTRA.REPUL.0>
0

>  <SCORE.INTRA.VDW>
-290.287

>  <SCORE.INTRA.VDW.0>
288.22

>  <SCORE.INTRA.norm>
-15.28

>  <SCORE.RESTR>
0

>  <SCORE.RESTR.CAVITY>
0

>  <SCORE.RESTR.norm>
0

>  <SCORE.SYSTEM>
-7.50043

>  <SCORE.SYSTEM.CONST>
0

>  <SCORE.SYSTEM.DIHEDRAL>
9.42856

>  <SCORE.SYSTEM.POLAR>
-4.65607

>  <SCORE.SYSTEM.REPUL>
0.0317483

>  <SCORE.SYSTEM.VDW>
3.4572

>  <SCORE.SYSTEM.norm>
-0.39476

>  <SCORE.heavy>
19

>  <SCORE.norm>
-16.1059

$$$$
F0717-1560
  rDOCK(R)          3D
libRbt.so/2013.1/901 2013/11/27
 20 21  0  0  0  0  0  0  0  0999 V2000
  -25.4517   23.9020  -10.4978 C   0  0  0  0  0  0
  -24.0527   24.2854  -10.3118 N   0  0  0  0  0  0
  -23.4492   23.7675   -8.6269 C   0  0  0  0  0  0
  -21.8009   24.7952   -8.3422 C   0  0  0  0  0  0
  -21.4725   25.8322   -9.8910 C   0  0  0  0  0  0
  -22.8056   25.5407  -10.9851 C   0  0  0  0  0  0
  -22.7668   26.1531  -12.2954 C   0  0  0  0  0  0
  -23.5133   25.1448  -13.0310 C   0  0  0  0  0  0
  -24.6458   25.3222  -13.4705 O   0  0  0  0  0  0
  -22.6969   24.0535  -13.3213 N   0  0  0  0  0  0
  -21.2570   23.9399  -13.1656 N   0  0  0  0  0  0
  -20.4667   22.8516  -13.0060 C   0  0  0  0  0  0
  -20.6859   21.0701  -12.8078 C   0  0  0  0  0  0
  -19.4312   19.5182  -13.3660 C   0  0  0  0  0  0
  -18.1636   19.5907  -13.9725 F   0  0  0  0  0  0
  -19.9722   17.9234  -13.5989 C   0  0  0  0  0  0
  -21.6497   17.6784  -13.3654 C   0  0  0  0  0  0
  -22.8358   18.9590  -12.9480 C   0  0  0  0  0  0
  -22.4244   20.6621  -12.6508 C   0  0  0  0  0  0
  -23.1826   23.3141  -13.8202 H   0  0  0  0  0  0
  1  2  1  0  0  0
  2  3  1  0  0  0
  2  6  1  0  0  0
  3  4  2  0  0  0
  4  5  1  0  0  0
  5  6  2  0  0  0
  6  7  1  0  0  0
  7  8  1  0  0  0
  8  9  2  0  0  0
  8 10  1  0  0  0
 10 11  1  0  0  0
 10 20  1  0  0  0
 11 12  2  0  0  0
 12 13  1  0  0  0
 13 14  2  0  0  0
 13 19  1  0  0  0
 14 15  1  0  0  0
 14 16  1  0  0  0
 16 17  2  0  0  0
 17 18  1  0  0  0
 18 19  2  0  0  0
M  END
>  <CHROM.0>
-62.31391993,63.54196246,110.32761383,63.28136852,-30.11014957,64.53340516
-157.56382604,-151.35178684

>  <CHROM.1>
-23.41803731,109.68001846,155.74532947,150.60088375,-22.06751463,22.68211918
-12.13652460,2.12177477,0.56459539,0.08518451

>  <Name>
F0717-1560

>  <RI>
2.78961e+07

>  <Rbt.Current_Directory>
/home/adria/Escritorio/rDock_CMTR_LC/2pxcA_model/inputs_sah

>  <Rbt.Executable>
rbdock ($Id: //depot/dev/client3/rdock/2013.1/src/exe/rbdock.cxx#4 $)

>  <Rbt.Library>
libRbt.so (2013.1, Build901 2013/11/27)

>  <Rbt.Parameter_File>
/home/adria/Escritorio/rDock_2013.1_src/data/scripts/dock.prm

>  <Rbt.Receptor>
sah_rdock.prm

>  <SCORE>
-308.74

>  <SCORE.INTER>
-10.1837

>  <SCORE.INTER.CONST>
1

>  <SCORE.INTER.POLAR>
-0.518576

>  <SCORE.INTER.REPUL>
0

>  <SCORE.INTER.ROT>
4

>  <SCORE.INTER.VDW>
-17.8205

>  <SCORE.INTER.norm>
-0.535982

>  <SCORE.INTRA>
-291.669

>  <SCORE.INTRA.DIHEDRAL>
-3.05959

>  <SCORE.INTRA.DIHEDRAL.0>
9.32597

>  <SCORE.INTRA.POLAR>
0

>  <SCORE.INTRA.POLAR.0>
0

>  <SCORE.INTRA.REPUL>
0

>  <SCORE.INTRA.REPUL.0>
0

>  <SCORE.INTRA.VDW>
-290.139

>  <SCORE.INTRA.VDW.0>
288.22

>  <SCORE.INTRA.norm>
-15.351

>  <SCORE.RESTR>
0

>  <SCORE.RESTR.CAVITY>
0

>  <SCORE.RESTR.norm>
0

>  <SCORE.SYSTEM>
-6.88673

>  <SCORE.SYSTEM.CONST>
0

>  <SCORE.SYSTEM.DIHEDRAL>
9.35447

>  <SCORE.SYSTEM.POLAR>
-4.30654

>  <SCORE.SYSTEM.VDW>
3.07827

>  <SCORE.SYSTEM.norm>
-0.36246

>  <SCORE.heavy>
19

>  <SCORE.norm>
-16.2495

$$$$
F0717-1560
  rDOCK(R)          3D
libRbt.so/2013.1/901 2013/11/27
 20 21  0  0  0  0  0  0  0  0999 V2000
  -18.8922   16.9016  -16.3380 C   0  0  0  0  0  0
  -17.6387   17.2338  -17.0141 N   0  0  0  0  0  0
  -17.2499   15.9743  -18.3308 C   0  0  0  0  0  0
  -15.3511   16.2481  -18.7477 C   0  0  0  0  0  0
  -14.7155   17.6915  -17.7014 C   0  0  0  0  0  0
  -16.0475   18.2081  -16.6925 C   0  0  0  0  0  0
  -15.8588   19.3632  -15.8419 C   0  0  0  0  0  0
  -16.9861   20.1596  -16.3000 C   0  0  0  0  0  0
  -17.0798   20.6165  -17.4356 O   0  0  0  0  0  0
  -18.0007   20.1574  -15.3448 N   0  0  0  0  0  0
  -18.1127   19.3349  -14.1525 N   0  0  0  0  0  0
  -18.8621   19.4925  -13.0353 C   0  0  0  0  0  0
  -19.9879   20.7304  -12.3563 C   0  0  0  0  0  0
  -21.4704   20.5184  -10.9240 C   0  0  0  0  0  0
  -21.8347   19.3661  -10.2034 F   0  0  0  0  0  0
  -22.7707   21.6020  -10.7646 C   0  0  0  0  0  0
  -22.7955   22.8865  -11.8951 C   0  0  0  0  0  0
  -21.6040   23.1281  -13.2154 C   0  0  0  0  0  0
  -20.1828   22.0992  -13.4975 C   0  0  0  0  0  0
  -18.8035   20.7176  -15.6150 H   0  0  0  0  0  0
  1  2  1  0  0  0
  2  3  1  0  0  0
  2  6  1  0  0  0
  3  4  2  0  0  0
  4  5  1  0  0  0
  5  6  2  0  0  0
  6  7  1  0  0  0
  7  8  1  0  0  0
  8  9  2  0  0  0
  8 10  1  0  0  0
 10 11  1  0  0  0
 10 20  1  0  0  0
 11 12  2  0  0  0
 12 13  1  0  0  0
 13 14  2  0  0  0
 13 19  1  0  0  0
 14 15  1  0  0  0
 14 16  1  0  0  0
 16 17  2  0  0  0
 17 18  1  0  0  0
 18 19  2  0  0  0
M  END
>  <CHROM.0>
-60.66836361,-167.52163980,73.57506624,65.82743027,-30.30663769,-178.91721473
82.95917189,-163.93785608

>  <CHROM.1>
-48.20504962,-65.56826706,161.41497316,158.42401674,-18.74384037,19.54157456
-14.69214544,0.39109576,-0.84811439,3.08974822

>  <Name>
F0717-1560

>  <RI>
2.78961e+07

>  <Rbt.Current_Directory>
/home/adria/Escritorio/rDock_CMTR_LC/2pxcA_model/inputs_sah

>  <Rbt.Executable>
rbdock ($Id: //depot/dev/client3/rdock/2013.1/src/exe/rbdock.cxx#4 $)

>  <Rbt.Library>
libRbt.so (2013.1, Build901 2013/11/27)

>  <Rbt.Parameter_File>
/home/adria/Escritorio/rDock_2013.1_src/data/scripts/dock.prm

>  <Rbt.Receptor>
sah_rdock.prm

>  <SCORE>
-309.556

>  <SCORE.INTER>
-10.0355

>  <SCORE.INTER.CONST>
1

>  <SCORE.INTER.POLAR>
-0.809145

>  <SCORE.INTER.REPUL>
0

>  <SCORE.INTER.ROT>
4

>  <SCORE.INTER.VDW>
-16.6844

>  <SCORE.INTER.norm>
-0.528182

>  <SCORE.INTRA>
-293.019

>  <SCORE.INTRA.DIHEDRAL>
-6.07013

>  <SCORE.INTRA.DIHEDRAL.0>
9.32597

>  <SCORE.INTRA.POLAR>
0

>  <SCORE.INTRA.POLAR.0>
0

>  <SCORE.INTRA.REPUL>
0

>  <SCORE.INTRA.REPUL.0>
0

>  <SCORE.INTRA.VDW>
-289.984

>  <SCORE.INTRA.VDW.0>
288.22

>  <SCORE.INTRA.norm>
-15.422

>  <SCORE.RESTR>
0

>  <SCORE.RESTR.CAVITY>
0

>  <SCORE.RESTR.norm>
0

>  <SCORE.SYSTEM>
-6.50173

>  <SCORE.SYSTEM.CONST>
0

>  <SCORE.SYSTEM.DIHEDRAL>
6.40976

>  <SCORE.SYSTEM.POLAR>
-3.73325

>  <SCORE.SYSTEM.VDW>
2.98645

>  <SCORE.SYSTEM.norm>
-0.342196

>  <SCORE.heavy>
19

>  <SCORE.norm>
-16.2924

$$$$
F0717-1560
  rDOCK(R)          3D
libRbt.so/2013.1/901 2013/11/27
 20 21  0  0  0  0  0  0  0  0999 V2000
  -23.5980   23.3712   -8.4833 C   0  0  0  0  0  0
  -22.6738   23.8514   -9.5099 N   0  0  0  0  0  0
  -21.9616   25.5047   -9.0296 C   0  0  0  0  0  0
  -21.2024   26.2295  -10.6886 C   0  0  0  0  0  0
  -21.4491   24.9516  -12.0626 C   0  0  0  0  0  0
  -22.3293   23.6153  -11.3565 C   0  0  0  0  0  0
  -22.5843   22.4500  -12.1753 C   0  0  0  0  0  0
  -21.6066   21.5493  -11.5856 C   0  0  0  0  0  0
  -21.8809   20.7134  -10.7293 O   0  0  0  0  0  0
  -20.3917   21.6433  -12.2616 N   0  0  0  0  0  0
  -20.1080   22.3257  -13.5123 N   0  0  0  0  0  0
  -19.8241   21.8368  -14.7432 C   0  0  0  0  0  0
  -19.5513   20.2192  -15.4979 C   0  0  0  0  0  0
  -19.3909   18.3575  -14.6020 C   0  0  0  0  0  0
  -19.5018   18.0284  -13.2385 F   0  0  0  0  0  0
  -18.6290   17.0312  -15.3442 C   0  0  0  0  0  0
  -17.9683   17.3394  -16.8925 C   0  0  0  0  0  0
  -17.9905   18.9257  -17.7317 C   0  0  0  0  0  0
  -18.7648   20.3949  -17.0993 C   0  0  0  0  0  0
  -19.6713   21.0431  -11.8715 H   0  0  0  0  0  0
  1  2  1  0  0  0
  2  3  1  0  0  0
  2  6  1  0  0  0
  3  4  2  0  0  0
  4  5  1  0  0  0
  5  6  2  0  0  0
  6  7  1  0  0  0
  7  8  1  0  0  0
  8  9  2  0  0  0
  8 10  1  0  0  0
 10 11  1  0  0  0
 10 20  1  0  0  0
 11 12  2  0  0  0
 12 13  1  0  0  0
 13 14  2  0  0  0
 13 19  1  0  0  0
 14 15  1  0  0  0
 14 16  1  0  0  0
 16 17  2  0  0  0
 17 18  1  0  0  0
 18 19  2  0  0  0
M  END
>  <CHROM.0>
-59.48274920,66.95149694,72.37952974,66.33656211,-30.38305968,61.58350387
-36.32376443,-161.00591397

>  <CHROM.1>
-68.07698677,97.63753958,-109.07991970,-7.04943985,-20.62050868,21.44068754
-12.89557987,2.59010766,1.07674478,-0.15284542

>  <Name>
F0717-1560

>  <RI>
2.78961e+07

>  <Rbt.Current_Directory>
/home/adria/Escritorio/rDock_CMTR_LC/2pxcA_model/inputs_sah

>  <Rbt.Executable>
rbdock ($Id: //depot/dev/client3/rdock/2013.1/src/exe/rbdock.cxx#4 $)

>  <Rbt.Library>
libRbt.so (2013.1, Build901 2013/11/27)

>  <Rbt.Parameter_File>
/home/adria/Escritorio/rDock_2013.1_src/data/scripts/dock.prm

>  <Rbt.Receptor>
sah_rdock.prm

>  <SCORE>
-306.756

>  <SCORE.INTER>
-8.50593

>  <SCORE.INTER.CONST>
1

>  <SCORE.INTER.POLAR>
0

>  <SCORE.INTER.REPUL>
0

>  <SCORE.INTER.ROT>
4

>  <SCORE.INTER.VDW>
-17.9059

>  <SCORE.INTER.norm>
-0.447681

>  <SCORE.INTRA>
-290.831

>  <SCORE.INTRA.DIHEDRAL>
-1.51519

>  <SCORE.INTRA.DIHEDRAL.0>
9.32597

>  <SCORE.INTRA.POLAR>
0

>  <SCORE.INTRA.POLAR.0>
0

>  <SCORE.INTRA.REPUL>
0

>  <SCORE.INTRA.REPUL.0>
0

>  <SCORE.INTRA.VDW>
-290.074

>  <SCORE.INTRA.VDW.0>
288.22

>  <SCORE.INTRA.norm>
-15.3069

>  <SCORE.RESTR>
0

>  <SCORE.RESTR.CAVITY>
0

>  <SCORE.RESTR.norm>
0

>  <SCORE.SYSTEM>
-7.41874

>  <SCORE.SYSTEM.CONST>
0

>  <SCORE.SYSTEM.DIHEDRAL>
6.05605

>  <SCORE.SYSTEM.POLAR>
-3.77587

>  <SCORE.SYSTEM.VDW>
2.39119

>  <SCORE.SYSTEM.norm>
-0.39046

>  <SCORE.heavy>
19

>  <SCORE.norm>
-16.145

$$$$
F0717-1560
  rDOCK(R)          3D
libRbt.so/2013.1/901 2013/11/27
 20 21  0  0  0  0  0  0  0  0999 V2000
  -22.0727   25.3781   -9.3809 C   0  0  0  0  0  0
  -22.6816   24.0639   -9.5826 N   0  0  0  0  0  0
  -23.2932   23.3693   -7.9655 C   0  0  0  0  0  0
  -23.5723   21.4568   -8.3100 C   0  0  0  0  0  0
  -23.1675   21.1152  -10.1269 C   0  0  0  0  0  0
  -22.6252   22.6286  -10.8160 C   0  0  0  0  0  0
  -22.3248   22.6721  -12.2307 C   0  0  0  0  0  0
  -20.9211   23.0425  -12.1456 C   0  0  0  0  0  0
  -20.5290   24.1983  -12.0135 O   0  0  0  0  0  0
  -20.1250   21.9035  -12.0417 N   0  0  0  0  0  0
  -20.5427   20.5314  -11.8108 N   0  0  0  0  0  0
  -20.3024   19.4017  -12.5183 C   0  0  0  0  0  0
  -19.4909   18.9539  -14.0681 C   0  0  0  0  0  0
  -19.0370   17.0785  -14.8237 C   0  0  0  0  0  0
  -19.3171   15.8174  -14.2659 F   0  0  0  0  0  0
  -17.8378   16.8154  -15.9996 C   0  0  0  0  0  0
  -16.9958   18.2145  -16.5117 C   0  0  0  0  0  0
  -17.2597   19.8728  -15.8780 C   0  0  0  0  0  0
  -18.4862   20.3114  -14.6691 C   0  0  0  0  0  0
  -19.1325   22.1138  -11.9978 H   0  0  0  0  0  0
  1  2  1  0  0  0
  2  3  1  0  0  0
  2  6  1  0  0  0
  3  4  2  0  0  0
  4  5  1  0  0  0
  5  6  2  0  0  0
  6  7  1  0  0  0
  7  8  1  0  0  0
  8  9  2  0  0  0
  8 10  1  0  0  0
 10 11  1  0  0  0
 10 20  1  0  0  0
 11 12  2  0  0  0
 12 13  1  0  0  0
 13 14  2  0  0  0
 13 19  1  0  0  0
 14 15  1  0  0  0
 14 16  1  0  0  0
 16 17  2  0  0  0
 17 18  1  0  0  0
 18 19  2  0  0  0
M  END
>  <CHROM.0>
-61.63591406,-167.74707557,-9.12780690,66.22160755,167.69063619,63.42473073
83.26138283,-162.96956869

>  <CHROM.1>
67.55880476,-83.42878056,124.81633214,170.94297799,-20.54814127,20.87520607
-12.36761339,-2.36549185,-0.84727408,-3.02243197

>  <Name>
F0717-1560

>  <RI>
2.78961e+07

>  <Rbt.Current_Directory>
/home/adria/Escritorio/rDock_CMTR_LC/2pxcA_model/inputs_sah

>  <Rbt.Executable>
rbdock ($Id: //depot/dev/client3/rdock/2013.1/src/exe/rbdock.cxx#4 $)

>  <Rbt.Library>
libRbt.so (2013.1, Build901 2013/11/27)

>  <Rbt.Parameter_File>
/home/adria/Escritorio/rDock_2013.1_src/data/scripts/dock.prm

>  <Rbt.Receptor>
sah_rdock.prm

>  <SCORE>
-302.743

>  <SCORE.INTER>
-10.1101

>  <SCORE.INTER.CONST>
1

>  <SCORE.INTER.POLAR>
-0.916515

>  <SCORE.INTER.REPUL>
0

>  <SCORE.INTER.ROT>
4

>  <SCORE.INTER.VDW>
-16.394

>  <SCORE.INTER.norm>
-0.532112

>  <SCORE.INTRA>
-291.461

>  <SCORE.INTRA.DIHEDRAL>
-2.90567

>  <SCORE.INTRA.DIHEDRAL.0>
9.32597

>  <SCORE.INTRA.POLAR>
0

>  <SCORE.INTRA.POLAR.0>
0

>  <SCORE.INTRA.REPUL>
0

>  <SCORE.INTRA.REPUL.0>
0

>  <SCORE.INTRA.VDW>
-290.008

>  <SCORE.INTRA.VDW.0>
288.22

>  <SCORE.INTRA.norm>
-15.3401

>  <SCORE.RESTR>
0

>  <SCORE.RESTR.CAVITY>
0

>  <SCORE.RESTR.norm>
0

>  <SCORE.SYSTEM>
-1.17192

>  <SCORE.SYSTEM.CONST>
0

>  <SCORE.SYSTEM.DIHEDRAL>
6.65775

>  <SCORE.SYSTEM.POLAR>
-4.19585

>  <SCORE.SYSTEM.VDW>
9.7651

>  <SCORE.SYSTEM.norm>
-0.06168

>  <SCORE.heavy>
19

>  <SCORE.norm>
-15.9339

$$$$
F0717-1560
  rDOCK(R)          3D
libRbt.so/2013.1/901 2013/11/27
 20 21  0  0  0  0  0  0  0  0999 V2000
  -18.1573   15.5137  -15.9275 C   0  0  0  0  0  0
  -18.2560   16.9612  -16.1110 N   0  0  0  0  0  0
  -16.6747   17.6411  -16.8242 C   0  0  0  0  0  0
  -16.7688   19.5766  -16.5088 C   0  0  0  0  0  0
  -18.4230   19.9626  -15.6745 C   0  0  0  0  0  0
  -19.2338   18.4323  -15.4296 C   0  0  0  0  0  0
  -20.5707   18.4426  -14.8765 C   0  0  0  0  0  0
  -20.2524   18.0093  -13.5253 C   0  0  0  0  0  0
  -19.9733   16.8508  -13.2300 O   0  0  0  0  0  0
  -20.1240   19.1105  -12.6811 N   0  0  0  0  0  0
  -20.0661   20.5173  -13.0390 N   0  0  0  0  0  0
  -20.5645   21.6110  -12.4148 C   0  0  0  0  0  0
  -21.5831   21.9631  -10.9658 C   0  0  0  0  0  0
  -22.8016   20.6931   -9.8719 C   0  0  0  0  0  0
  -23.0198   19.3151  -10.0543 F   0  0  0  0  0  0
  -24.0762   21.2441   -8.8910 C   0  0  0  0  0  0
  -24.3123   22.9390   -8.8819 C   0  0  0  0  0  0
  -23.3625   24.1228   -9.8398 C   0  0  0  0  0  0
  -21.9902   23.7072  -10.8897 C   0  0  0  0  0  0
  -19.9190   18.8540  -11.7200 H   0  0  0  0  0  0
  1  2  1  0  0  0
  2  3  1  0  0  0
  2  6  1  0  0  0
  3  4  2  0  0  0
  4  5  1  0  0  0
  5  6  2  0  0  0
  6  7  1  0  0  0
  7  8  1  0  0  0
  8  9  2  0  0  0
  8 10  1  0  0  0
 10 11  1  0  0  0
 10 20  1  0  0  0
 11 12  2  0  0  0
 12 13  1  0  0  0
 13 14  2  0  0  0
 13 19  1  0  0  0
 14 15  1  0  0  0
 14 16  1  0  0  0
 16 17  2  0  0  0
 17 18  1  0  0  0
 18 19  2  0  0  0
M  END
>  <CHROM.0>
-60.64307831,-74.95330960,-167.30306209,62.80898474,-30.82962149,-179.35706103
83.82477380,-162.76655779

>  <CHROM.1>
82.31411364,-75.32057161,143.65856900,-16.33147556,-20.54859870,19.72307257
-12.91070839,0.59437646,-0.83752871,-3.04976537

>  <Name>
F0717-1560

>  <RI>
2.78961e+07

>  <Rbt.Current_Directory>
/home/adria/Escritorio/rDock_CMTR_LC/2pxcA_model/inputs_sah

>  <Rbt.Executable>
rbdock ($Id: //depot/dev/client3/rdock/2013.1/src/exe/rbdock.cxx#4 $)

>  <Rbt.Library>
libRbt.so (2013.1, Build901 2013/11/27)

>  <Rbt.Parameter_File>
/home/adria/Escritorio/rDock_2013.1_src/data/scripts/dock.prm

>  <Rbt.Receptor>
sah_rdock.prm

>  <SCORE>
-309.021

>  <SCORE.INTER>
-9.54553

>  <SCORE.INTER.CONST>
1

>  <SCORE.INTER.POLAR>
-1.52

>  <SCORE.INTER.REPUL>
0

>  <SCORE.INTER.ROT>
4

>  <SCORE.INTER.VDW>
-13.7775

>  <SCORE.INTER.norm>
-0.502396

>  <SCORE.INTRA>
-291.984

>  <SCORE.INTRA.DIHEDRAL>
-4.2415

>  <SCORE.INTRA.DIHEDRAL.0>
9.32597

>  <SCORE.INTRA.POLAR>
0

>  <SCORE.INTRA.POLAR.0>
0

>  <SCORE.INTRA.REPUL>
0

>  <SCORE.INTRA.REPUL.0>
0

>  <SCORE.INTRA.VDW>
-289.863

>  <SCORE.INTRA.VDW.0>
288.22

>  <SCORE.INTRA.norm>
-15.3676

>  <SCORE.RESTR>
0

>  <SCORE.RESTR.CAVITY>
0

>  <SCORE.RESTR.norm>
0

>  <SCORE.SYSTEM>
-7.49103

>  <SCORE.SYSTEM.CONST>
0

>  <SCORE.SYSTEM.DIHEDRAL>
6.56662

>  <SCORE.SYSTEM.POLAR>
-4.0097

>  <SCORE.SYSTEM.REPUL>
0.0418356

>  <SCORE.SYSTEM.VDW>
2.64947

>  <SCORE.SYSTEM.norm>
-0.394265

>  <SCORE.heavy>
19

>  <SCORE.norm>
-16.2642

$$$$
F0717-1560
  rDOCK(R)          3D
libRbt.so/2013.1/901 2013/11/27
 20 21  0  0  0  0  0  0  0  0999 V2000
  -25.1099   23.9407   -9.6105 C   0  0  0  0  0  0
  -23.8334   24.4014  -10.1556 N   0  0  0  0  0  0
  -22.5802   24.6212   -8.7946 C   0  0  0  0  0  0
  -21.1582   25.7174   -9.5888 C   0  0  0  0  0  0
  -21.6052   26.0506  -11.3974 C   0  0  0  0  0  0
  -23.1649   25.3099  -11.6762 C   0  0  0  0  0  0
  -23.7133   25.3435  -13.0147 C   0  0  0  0  0  0
  -24.1956   23.9735  -13.0887 C   0  0  0  0  0  0
  -25.3772   23.6750  -13.2366 O   0  0  0  0  0  0
  -23.1238   23.0859  -13.1618 N   0  0  0  0  0  0
  -21.7185   23.3871  -13.3732 N   0  0  0  0  0  0
  -20.6465   22.5686  -13.4980 C   0  0  0  0  0  0
  -20.3098   20.7976  -13.3925 C   0  0  0  0  0  0
  -18.7030   19.7159  -14.1290 C   0  0  0  0  0  0
  -17.5700   20.1880  -14.8169 F   0  0  0  0  0  0
  -18.7642   18.0419  -14.4192 C   0  0  0  0  0  0
  -20.2675   17.2958  -14.0846 C   0  0  0  0  0  0
  -21.7405   18.1447  -13.5093 C   0  0  0  0  0  0
  -21.8293   19.8806  -13.1396 C   0  0  0  0  0  0
  -23.4138   22.1132  -13.1969 H   0  0  0  0  0  0
  1  2  1  0  0  0
  2  3  1  0  0  0
  2  6  1  0  0  0
  3  4  2  0  0  0
  4  5  1  0  0  0
  5  6  2  0  0  0
  6  7  1  0  0  0
  7  8  1  0  0  0
  8  9  2  0  0  0
  8 10  1  0  0  0
 10 11  1  0  0  0
 10 20  1  0  0  0
 11 12  2  0  0  0
 12 13  1  0  0  0
 13 14  2  0  0  0
 13 19  1  0  0  0
 14 15  1  0  0  0
 14 16  1  0  0  0
 16 17  2  0  0  0
 17 18  1  0  0  0
 18 19  2  0  0  0
M  END
>  <CHROM.0>
-60.49001305,-73.23228363,111.29680981,66.28566921,168.51818808,-177.56571971
82.72176255,-165.29508967

>  <CHROM.1>
-36.67110355,118.05500046,-177.45034641,160.87722088,-21.85953194,22.42627007
-12.56164299,2.12720555,0.04586905,0.47313643

>  <Name>
F0717-1560

>  <RI>
2.78961e+07

>  <Rbt.Current_Directory>
/home/adria/Escritorio/rDock_CMTR_LC/2pxcA_model/inputs_sah

>  <Rbt.Executable>
rbdock ($Id: //depot/dev/client3/rdock/2013.1/src/exe/rbdock.cxx#4 $)

>  <Rbt.Library>
libRbt.so (2013.1, Build901 2013/11/27)

>  <Rbt.Parameter_File>
/home/adria/Escritorio/rDock_2013.1_src/data/scripts/dock.prm

>  <Rbt.Receptor>
sah_rdock.prm

>  <SCORE>
-304.639

>  <SCORE.INTER>
-9.18899

>  <SCORE.INTER.CONST>
1

>  <SCORE.INTER.POLAR>
-0.0454064

>  <SCORE.INTER.REPUL>
0

>  <SCORE.INTER.ROT>
4

>  <SCORE.INTER.VDW>
-18.4346

>  <SCORE.INTER.norm>
-0.483631

>  <SCORE.INTRA>
-293.023

>  <SCORE.INTRA.DIHEDRAL>
-6.4301

>  <SCORE.INTRA.DIHEDRAL.0>
9.32597

>  <SCORE.INTRA.POLAR>
0

>  <SCORE.INTRA.POLAR.0>
0

>  <SCORE.INTRA.REPUL>
0

>  <SCORE.INTRA.REPUL.0>
0

>  <SCORE.INTRA.VDW>
-289.808

>  <SCORE.INTRA.VDW.0>
288.22

>  <SCORE.INTRA.norm>
-15.4223

>  <SCORE.RESTR>
0

>  <SCORE.RESTR.CAVITY>
0

>  <SCORE.RESTR.norm>
0

>  <SCORE.SYSTEM>
-2.42669

>  <SCORE.SYSTEM.CONST>
0

>  <SCORE.SYSTEM.DIHEDRAL>
6.52655

>  <SCORE.SYSTEM.POLAR>
-4.49937

>  <SCORE.SYSTEM.REPUL>
0.0389477

>  <SCORE.SYSTEM.VDW>
9.41317

>  <SCORE.SYSTEM.norm>
-0.12772

>  <SCORE.heavy>
19

>  <SCORE.norm>
-16.0336

$$$$
F0717-1560
  rDOCK(R)          3D
libRbt.so/2013.1/901 2013/11/27
 20 21  0  0  0  0  0  0  0  0999 V2000
  -18.6809   20.4015  -16.6606 C   0  0  0  0  0  0
  -18.4286   19.0087  -16.2929 N   0  0  0  0  0  0
  -17.3954   18.1640  -17.5930 C   0  0  0  0  0  0
  -17.6013   16.2448  -17.2344 C   0  0  0  0  0  0
  -18.7002   16.0405  -15.7071 C   0  0  0  0  0  0
  -19.1852   17.6476  -15.2161 C   0  0  0  0  0  0
  -19.9733   17.7905  -14.0111 C   0  0  0  0  0  0
  -20.9279   18.7779  -14.4892 C   0  0  0  0  0  0
  -21.8568   18.5149  -15.2476 O   0  0  0  0  0  0
  -20.7500   19.9873  -13.8202 N   0  0  0  0  0  0
  -19.9291   20.2578  -12.6526 N   0  0  0  0  0  0
  -19.7601   21.3926  -11.9327 C   0  0  0  0  0  0
  -20.3058   23.1118  -12.0179 C   0  0  0  0  0  0
  -19.9861   24.6633  -10.6819 C   0  0  0  0  0  0
  -19.2519   24.6493   -9.4817 F   0  0  0  0  0  0
  -20.9680   26.0496  -10.6150 C   0  0  0  0  0  0
  -22.2747   26.0746  -11.7198 C   0  0  0  0  0  0
  -22.6835   24.7602  -12.8714 C   0  0  0  0  0  0
  -21.7449   23.2651  -13.0758 C   0  0  0  0  0  0
  -21.3853   20.7142  -14.1355 H   0  0  0  0  0  0
  1  2  1  0  0  0
  2  3  1  0  0  0
  2  6  1  0  0  0
  3  4  2  0  0  0
  4  5  1  0  0  0
  5  6  2  0  0  0
  6  7  1  0  0  0
  7  8  1  0  0  0
  8  9  2  0  0  0
  8 10  1  0  0  0
 10 11  1  0  0  0
 10 20  1  0  0  0
 11 12  2  0  0  0
 12 13  1  0  0  0
 13 14  2  0  0  0
 13 19  1  0  0  0
 14 15  1  0  0  0
 14 16  1  0  0  0
 16 17  2  0  0  0
 17 18  1  0  0  0
 18 19  2  0  0  0
M  END
>  <CHROM.0>
-59.40154818,69.14162981,-8.32932195,62.81247263,-30.68269283,60.96845237
-38.49941598,-168.76743655

>  <CHROM.1>
49.23056101,75.41878397,-177.01860070,175.64212192,-20.01441867,20.91192480
-13.71335839,1.32545558,0.36075608,-2.44619526

>  <Name>
F0717-1560

>  <RI>
2.78961e+07

>  <Rbt.Current_Directory>
/home/adria/Escritorio/rDock_CMTR_LC/2pxcA_model/inputs_sah

>  <Rbt.Executable>
rbdock ($Id: //depot/dev/client3/rdock/2013.1/src/exe/rbdock.cxx#4 $)

>  <Rbt.Library>
libRbt.so (2013.1, Build901 2013/11/27)

>  <Rbt.Parameter_File>
/home/adria/Escritorio/rDock_2013.1_src/data/scripts/dock.prm

>  <Rbt.Receptor>
sah_rdock.prm

>  <SCORE>
-309.327

>  <SCORE.INTER>
-9.15477

>  <SCORE.INTER.CONST>
1

>  <SCORE.INTER.POLAR>
0

>  <SCORE.INTER.REPUL>
0.00363897

>  <SCORE.INTER.ROT>
4

>  <SCORE.INTER.VDW>
-18.573

>  <SCORE.INTER.norm>
-0.48183

>  <SCORE.INTRA>
-293.239

>  <SCORE.INTRA.DIHEDRAL>
-6.68816

>  <SCORE.INTRA.DIHEDRAL.0>
9.32597

>  <SCORE.INTRA.POLAR>
0

>  <SCORE.INTRA.POLAR.0>
0

>  <SCORE.INTRA.REPUL>
0

>  <SCORE.INTRA.REPUL.0>
0

>  <SCORE.INTRA.VDW>
-289.895

>  <SCORE.INTRA.VDW.0>
288.22

>  <SCORE.INTRA.norm>
-15.4336

>  <SCORE.RESTR>
0

>  <SCORE.RESTR.CAVITY>
0

>  <SCORE.RESTR.norm>
0

>  <SCORE.SYSTEM>
-6.93325

>  <SCORE.SYSTEM.CONST>
0

>  <SCORE.SYSTEM.DIHEDRAL>
8.55761

>  <SCORE.SYSTEM.POLAR>
-4.23309

>  <SCORE.SYSTEM.VDW>
3.18047

>  <SCORE.SYSTEM.norm>
-0.364908

>  <SCORE.heavy>
19

>  <SCORE.norm>
-16.2804

$$$$
F0717-1560
  rDOCK(R)          3D
libRbt.so/2013.1/901 2013/11/27
 20 21  0  0  0  0  0  0  0  0999 V2000
  -21.0848   17.5693  -14.4499 C   0  0  0  0  0  0
  -20.5717   18.7511  -15.1418 N   0  0  0  0  0  0
  -19.9588   18.3008  -16.8427 C   0  0  0  0  0  0
  -18.8512   19.8227  -17.4005 C   0  0  0  0  0  0
  -18.9024   21.1280  -16.0311 C   0  0  0  0  0  0
  -19.8704   20.4621  -14.7355 C   0  0  0  0  0  0
  -20.1435   21.2936  -13.5833 C   0  0  0  0  0  0
  -19.4921   20.4818  -12.5676 C   0  0  0  0  0  0
  -18.3055   20.5865  -12.2705 O   0  0  0  0  0  0
  -20.4354   19.7301  -11.8697 N   0  0  0  0  0  0
  -21.8834   19.8395  -11.9119 N   0  0  0  0  0  0
  -22.6983   20.8983  -11.6896 C   0  0  0  0  0  0
  -22.5269   22.6173  -11.1636 C   0  0  0  0  0  0
  -20.8100   23.7384  -10.8642 C   0  0  0  0  0  0
  -19.4692   23.3562  -11.0542 F   0  0  0  0  0  0
  -20.7673   25.1309   -9.8898 C   0  0  0  0  0  0
  -22.2480   25.5430   -9.1372 C   0  0  0  0  0  0
  -23.7745   24.6088   -9.2726 C   0  0  0  0  0  0
  -23.9844   23.1507  -10.2666 C   0  0  0  0  0  0
  -20.0226   19.1324  -11.1601 H   0  0  0  0  0  0
  1  2  1  0  0  0
  2  3  1  0  0  0
  2  6  1  0  0  0
  3  4  2  0  0  0
  4  5  1  0  0  0
  5  6  2  0  0  0
  6  7  1  0  0  0
  7  8  1  0  0  0
  8  9  2  0  0  0
  8 10  1  0  0  0
 10 11  1  0  0  0
 10 20  1  0  0  0
 11 12  2  0  0  0
 12 13  1  0  0  0
 13 14  2  0  0  0
 13 19  1  0  0  0
 14 15  1  0  0  0
 14 16  1  0  0  0
 16 17  2  0  0  0
 17 18  1  0  0  0
 18 19  2  0  0  0
M  END
>  <CHROM.0>
-171.57395213,-167.49115678,75.01054880,-60.64081010,-29.91906816,61.96094598
-157.03582381,-160.61479846

>  <CHROM.1>
68.65365038,88.30447987,-55.39860815,7.58123630,-20.77009886,21.38826974
-12.61888308,1.20855883,-0.52401823,-2.48619674

>  <Name>
F0717-1560

>  <RI>
2.78961e+07

>  <Rbt.Current_Directory>
/home/adria/Escritorio/rDock_CMTR_LC/2pxcA_model/inputs_sah

>  <Rbt.Executable>
rbdock ($Id: //depot/dev/client3/rdock/2013.1/src/exe/rbdock.cxx#4 $)

>  <Rbt.Library>
libRbt.so (2013.1, Build901 2013/11/27)

>  <Rbt.Parameter_File>
/home/adria/Escritorio/rDock_2013.1_src/data/scripts/dock.prm

>  <Rbt.Receptor>
sah_rdock.prm

>  <SCORE>
-305.118

>  <SCORE.INTER>
-8.03313

>  <SCORE.INTER.CONST>
1

>  <SCORE.INTER.POLAR>
-0.571519

>  <SCORE.INTER.REPUL>
0

>  <SCORE.INTER.ROT>
4

>  <SCORE.INTER.VDW>
-15.49

>  <SCORE.INTER.norm>
-0.422796

>  <SCORE.INTRA>
-291.118

>  <SCORE.INTRA.DIHEDRAL>
-1.03986

>  <SCORE.INTRA.DIHEDRAL.0>
9.32597

>  <SCORE.INTRA.POLAR>
0

>  <SCORE.INTRA.POLAR.0>
0

>  <SCORE.INTRA.REPUL>
0

>  <SCORE.INTRA.REPUL.0>
0

>  <SCORE.INTRA.VDW>
-290.598

>  <SCORE.INTRA.VDW.0>
288.22

>  <SCORE.INTRA.norm>
-15.322

>  <SCORE.RESTR>
0

>  <SCORE.RESTR.CAVITY>
0

>  <SCORE.RESTR.norm>
0

>  <SCORE.SYSTEM>
-5.96769

>  <SCORE.SYSTEM.CONST>
0

>  <SCORE.SYSTEM.DIHEDRAL>
6.92517

>  <SCORE.SYSTEM.POLAR>
-3.79754

>  <SCORE.SYSTEM.VDW>
3.48134

>  <SCORE.SYSTEM.norm>
-0.314089

>  <SCORE.heavy>
19

>  <SCORE.norm>
-16.0589

$$$$
F0717-1560
  rDOCK(R)          3D
libRbt.so/2013.1/901 2013/11/27
 20 21  0  0  0  0  0  0  0  0999 V2000
  -14.1967   19.7049  -17.4414 C   0  0  0  0  0  0
  -15.0284   18.5186  -17.2424 N   0  0  0  0  0  0
  -13.9681   16.9974  -17.0599 C   0  0  0  0  0  0
  -15.1945   15.4898  -17.3385 C   0  0  0  0  0  0
  -16.9334   16.1826  -17.6178 C   0  0  0  0  0  0
  -16.7922   17.9257  -17.5915 C   0  0  0  0  0  0
  -17.9995   18.7156  -17.7008 C   0  0  0  0  0  0
  -17.7244   19.6832  -16.6506 C   0  0  0  0  0  0
  -17.3419   20.8300  -16.8649 O   0  0  0  0  0  0
  -18.1372   19.1879  -15.4153 N   0  0  0  0  0  0
  -18.9373   18.0068  -15.1409 N   0  0  0  0  0  0
  -19.8383   17.7556  -14.1613 C   0  0  0  0  0  0
  -20.4676   18.5933  -12.6906 C   0  0  0  0  0  0
  -22.1485   18.1741  -11.5535 C   0  0  0  0  0  0
  -23.0795   17.1317  -11.7165 F   0  0  0  0  0  0
  -22.8988   19.3198  -10.5461 C   0  0  0  0  0  0
  -22.1844   20.8749  -10.5480 C   0  0  0  0  0  0
  -20.7725   21.3656  -11.5415 C   0  0  0  0  0  0
  -19.8689   20.2816  -12.6216 C   0  0  0  0  0  0
  -17.9477   19.8247  -14.6472 H   0  0  0  0  0  0
  1  2  1  0  0  0
  2  3  1  0  0  0
  2  6  1  0  0  0
  3  4  2  0  0  0
  4  5  1  0  0  0
  5  6  2  0  0  0
  6  7  1  0  0  0
  7  8  1  0  0  0
  8  9  2  0  0  0
  8 10  1  0  0  0
 10 11  1  0  0  0
 10 20  1  0  0  0
 11 12  2  0  0  0
 12 13  1  0  0  0
 13 14  2  0  0  0
 13 19  1  0  0  0
 14 15  1  0  0  0
 14 16  1  0  0  0
 16 17  2  0  0  0
 17 18  1  0  0  0
 18 19  2  0  0  0
M  END
>  <CHROM.0>
-61.39391725,-74.08302886,-47.28171378,66.45122348,-31.38985357,-59.02810347
-36.96658626,-165.30817761

>  <CHROM.1>
-37.95677651,102.60650913,-147.16916646,165.48300830,-18.63064476,18.67258195
-14.81179067,-0.27931473,0.71177430,0.22028917

>  <Name>
F0717-1560

>  <RI>
2.78961e+07

>  <Rbt.Current_Directory>
/home/adria/Escritorio/rDock_CMTR_LC/2pxcA_model/inputs_sah

>  <Rbt.Executable>
rbdock ($Id: //depot/dev/client3/rdock/2013.1/src/exe/rbdock.cxx#4 $)

>  <Rbt.Library>
libRbt.so (2013.1, Build901 2013/11/27)

>  <Rbt.Parameter_File>
/home/adria/Escritorio/rDock_2013.1_src/data/scripts/dock.prm

>  <Rbt.Receptor>
sah_rdock.prm

>  <SCORE>
-311.435

>  <SCORE.INTER>
-11.2236

>  <SCORE.INTER.CONST>
1

>  <SCORE.INTER.POLAR>
-0.848528

>  <SCORE.INTER.REPUL>
0

>  <SCORE.INTER.ROT>
4

>  <SCORE.INTER.VDW>
-17.7386

>  <SCORE.INTER.norm>
-0.590715

>  <SCORE.INTRA>
-292.555

>  <SCORE.INTRA.DIHEDRAL>
-5.11465

>  <SCORE.INTRA.DIHEDRAL.0>
9.32597

>  <SCORE.INTRA.POLAR>
0

>  <SCORE.INTRA.POLAR.0>
0

>  <SCORE.INTRA.REPUL>
0

>  <SCORE.INTRA.REPUL.0>
0

>  <SCORE.INTRA.VDW>
-289.998

>  <SCORE.INTRA.VDW.0>
288.22

>  <SCORE.INTRA.norm>
-15.3976

>  <SCORE.RESTR>
0

>  <SCORE.RESTR.CAVITY>
0

>  <SCORE.RESTR.norm>
0

>  <SCORE.SYSTEM>
-7.65607

>  <SCORE.SYSTEM.CONST>
0

>  <SCORE.SYSTEM.DIHEDRAL>
6.33999

>  <SCORE.SYSTEM.POLAR>
-4.02056

>  <SCORE.SYSTEM.REPUL>
0.040412

>  <SCORE.SYSTEM.VDW>
2.64178

>  <SCORE.SYSTEM.norm>
-0.402951

>  <SCORE.heavy>
19

>  <SCORE.norm>
-16.3913

$$$$
F0717-1560
  rDOCK(R)          3D
libRbt.so/2013.1/901 2013/11/27
 20 21  0  0  0  0  0  0  0  0999 V2000
  -21.5197   17.3805  -13.6445 C   0  0  0  0  0  0
  -21.7393   18.4760  -12.7009 N   0  0  0  0  0  0
  -22.8562   17.9317  -11.3125 C   0  0  0  0  0  0
  -23.4651   19.5974  -10.4707 C   0  0  0  0  0  0
  -22.6396   21.0492  -11.3610 C   0  0  0  0  0  0
  -21.6846   20.3680  -12.6584 C   0  0  0  0  0  0
  -20.8740   21.2607  -13.4581 C   0  0  0  0  0  0
  -19.5700   20.9236  -12.9095 C   0  0  0  0  0  0
  -19.2102   21.2256  -11.7752 O   0  0  0  0  0  0
  -18.8902   20.0633  -13.7695 N   0  0  0  0  0  0
  -19.4028   19.3681  -14.9376 N   0  0  0  0  0  0
  -18.7561   18.7565  -15.9585 C   0  0  0  0  0  0
  -17.0491   18.5315  -16.5030 C   0  0  0  0  0  0
  -15.5188   19.9211  -16.6491 C   0  0  0  0  0  0
  -15.5404   21.2873  -16.3132 F   0  0  0  0  0  0
  -14.1584   19.7044  -17.6453 C   0  0  0  0  0  0
  -14.1416   18.2554  -18.5557 C   0  0  0  0  0  0
  -15.4410   17.0174  -18.5573 C   0  0  0  0  0  0
  -16.9084   17.0886  -17.5574 C   0  0  0  0  0  0
  -17.9643   19.8148  -13.4345 H   0  0  0  0  0  0
  1  2  1  0  0  0
  2  3  1  0  0  0
  2  6  1  0  0  0
  3  4  2  0  0  0
  4  5  1  0  0  0
  5  6  2  0  0  0
  6  7  1  0  0  0
  7  8  1  0  0  0
  8  9  2  0  0  0
  8 10  1  0  0  0
 10 11  1  0  0  0
 10 20  1  0  0  0
 11 12  2  0  0  0
 12 13  1  0  0  0
 13 14  2  0  0  0
 13 19  1  0  0  0
 14 15  1  0  0  0
 14 16  1  0  0  0
 16 17  2  0  0  0
 17 18  1  0  0  0
 18 19  2  0  0  0
M  END
>  <CHROM.0>
-62.24237600,-74.32205683,71.90670685,-62.66008721,-29.88653647,-60.82805702
83.28476419,-160.94625785

>  <CHROM.1>
-67.97711118,-70.22605670,164.30343789,-45.90676776,-18.88343938,19.42843737
-14.54699921,2.71969948,0.58965208,0.53082120

>  <Name>
F0717-1560

>  <RI>
2.78961e+07

>  <Rbt.Current_Directory>
/home/adria/Escritorio/rDock_CMTR_LC/2pxcA_model/inputs_sah

>  <Rbt.Executable>
rbdock ($Id: //depot/dev/client3/rdock/2013.1/src/exe/rbdock.cxx#4 $)

>  <Rbt.Library>
libRbt.so (2013.1, Build901 2013/11/27)

>  <Rbt.Parameter_File>
/home/adria/Escritorio/rDock_2013.1_src/data/scripts/dock.prm

>  <Rbt.Receptor>
sah_rdock.prm

>  <SCORE>
-306.33

>  <SCORE.INTER>
-7.47697

>  <SCORE.INTER.CONST>
1

>  <SCORE.INTER.POLAR>
0

>  <SCORE.INTER.REPUL>
0

>  <SCORE.INTER.ROT>
4

>  <SCORE.INTER.VDW>
-16.877

>  <SCORE.INTER.norm>
-0.393525

>  <SCORE.INTRA>
-291.268

>  <SCORE.INTRA.DIHEDRAL>
-2.86402

>  <SCORE.INTRA.DIHEDRAL.0>
9.32597

>  <SCORE.INTRA.POLAR>
0

>  <SCORE.INTRA.POLAR.0>
0

>  <SCORE.INTRA.REPUL>
0

>  <SCORE.INTRA.REPUL.0>
0

>  <SCORE.INTRA.VDW>
-289.836

>  <SCORE.INTRA.VDW.0>
288.22

>  <SCORE.INTRA.norm>
-15.3299

>  <SCORE.RESTR>
0

>  <SCORE.RESTR.CAVITY>
0

>  <SCORE.RESTR.norm>
0

>  <SCORE.SYSTEM>
-7.5855

>  <SCORE.SYSTEM.CONST>
0

>  <SCORE.SYSTEM.DIHEDRAL>
6.67872

>  <SCORE.SYSTEM.POLAR>
-4.08025

>  <SCORE.SYSTEM.REPUL>
0.0408105

>  <SCORE.SYSTEM.VDW>
2.74395

>  <SCORE.SYSTEM.norm>
-0.399237

>  <SCORE.heavy>
19

>  <SCORE.norm>
-16.1226

$$$$
F0717-1560
  rDOCK(R)          3D
libRbt.so/2013.1/901 2013/11/27
 20 21  0  0  0  0  0  0  0  0999 V2000
  -19.1653   24.8781  -10.4263 C   0  0  0  0  0  0
  -20.6232   24.8561  -10.5392 N   0  0  0  0  0  0
  -21.4141   25.1487   -8.8777 C   0  0  0  0  0  0
  -23.2768   24.5678   -9.0950 C   0  0  0  0  0  0
  -23.5198   24.0102  -10.8872 C   0  0  0  0  0  0
  -21.9656   24.1561  -11.6760 C   0  0  0  0  0  0
  -21.8827   23.8687  -13.0916 C   0  0  0  0  0  0
  -22.0031   22.4207  -13.0289 C   0  0  0  0  0  0
  -23.0329   21.8369  -12.7035 O   0  0  0  0  0  0
  -20.8686   21.8165  -13.5672 N   0  0  0  0  0  0
  -19.7857   22.4366  -14.3110 N   0  0  0  0  0  0
  -18.8851   21.9055  -15.1720 C   0  0  0  0  0  0
  -18.4476   20.2663  -15.7907 C   0  0  0  0  0  0
  -19.2434   18.4171  -15.2995 C   0  0  0  0  0  0
  -20.2962   18.1233  -14.4134 F   0  0  0  0  0  0
  -18.4139   16.9535  -15.5443 C   0  0  0  0  0  0
  -16.8441   17.1044  -16.2086 C   0  0  0  0  0  0
  -16.0324   18.6546  -16.6080 C   0  0  0  0  0  0
  -16.7733   20.2602  -16.4314 C   0  0  0  0  0  0
  -20.9008   20.8022  -13.5279 H   0  0  0  0  0  0
  1  2  1  0  0  0
  2  3  1  0  0  0
  2  6  1  0  0  0
  3  4  2  0  0  0
  4  5  1  0  0  0
  5  6  2  0  0  0
  6  7  1  0  0  0
  7  8  1  0  0  0
  8  9  2  0  0  0
  8 10  1  0  0  0
 10 11  1  0  0  0
 10 20  1  0  0  0
 11 12  2  0  0  0
 12 13  1  0  0  0
 13 14  2  0  0  0
 13 19  1  0  0  0
 14 15  1  0  0  0
 14 16  1  0  0  0
 16 17  2  0  0  0
 17 18  1  0  0  0
 18 19  2  0  0  0
M  END
>  <CHROM.0>
-177.39150328,-71.78211656,107.85639357,-59.81593167,168.62104001,61.56350064
-156.37488319,-160.13655383

>  <CHROM.1>
113.35344247,68.87595018,-158.29654572,-1.79062736,-20.16865643,21.63894182
-13.32959250,-2.08023354,-0.33133838,-2.58884900

>  <Name>
F0717-1560

>  <RI>
2.78961e+07

>  <Rbt.Current_Directory>
/home/adria/Escritorio/rDock_CMTR_LC/2pxcA_model/inputs_sah

>  <Rbt.Executable>
rbdock ($Id: //depot/dev/client3/rdock/2013.1/src/exe/rbdock.cxx#4 $)

>  <Rbt.Library>
libRbt.so (2013.1, Build901 2013/11/27)

>  <Rbt.Parameter_File>
/home/adria/Escritorio/rDock_2013.1_src/data/scripts/dock.prm

>  <Rbt.Receptor>
sah_rdock.prm

>  <SCORE>
-301.487

>  <SCORE.INTER>
-8.35925

>  <SCORE.INTER.CONST>
1

>  <SCORE.INTER.POLAR>
0

>  <SCORE.INTER.REPUL>
0

>  <SCORE.INTER.ROT>
4

>  <SCORE.INTER.VDW>
-17.7592

>  <SCORE.INTER.norm>
-0.43996

>  <SCORE.INTRA>
-291.097

>  <SCORE.INTRA.DIHEDRAL>
-3.97474

>  <SCORE.INTRA.DIHEDRAL.0>
9.32597

>  <SCORE.INTRA.POLAR>
0

>  <SCORE.INTRA.POLAR.0>
0

>  <SCORE.INTRA.REPUL>
0

>  <SCORE.INTRA.REPUL.0>
0

>  <SCORE.INTRA.VDW>
-289.109

>  <SCORE.INTRA.VDW.0>
288.22

>  <SCORE.INTRA.norm>
-15.3209

>  <SCORE.RESTR>
0

>  <SCORE.RESTR.CAVITY>
0

>  <SCORE.RESTR.norm>
0

>  <SCORE.SYSTEM>
-2.03063

>  <SCORE.SYSTEM.CONST>
0

>  <SCORE.SYSTEM.DIHEDRAL>
6.3366

>  <SCORE.SYSTEM.POLAR>
-4.50844

>  <SCORE.SYSTEM.REPUL>
0.0362885

>  <SCORE.SYSTEM.VDW>
9.94833

>  <SCORE.SYSTEM.norm>
-0.106875

>  <SCORE.heavy>
19

>  <SCORE.norm>
-15.8677

$$$$
F0717-1560
  rDOCK(R)          3D
libRbt.so/2013.1/901 2013/11/27
 20 21  0  0  0  0  0  0  0  0999 V2000
  -16.1133   19.6223  -16.3091 C   0  0  0  0  0  0
  -17.0753   18.6880  -15.7257 N   0  0  0  0  0  0
  -16.6976   16.9420  -16.2552 C   0  0  0  0  0  0
  -18.3290   15.9272  -15.8518 C   0  0  0  0  0  0
  -19.5776   17.1033  -15.0520 C   0  0  0  0  0  0
  -18.8358   18.6870  -15.0294 C   0  0  0  0  0  0
  -19.5488   19.7718  -14.3903 C   0  0  0  0  0  0
  -19.0489   19.5952  -13.0361 C   0  0  0  0  0  0
  -18.0638   20.1785  -12.5928 O   0  0  0  0  0  0
  -19.9453   18.8388  -12.2836 N   0  0  0  0  0  0
  -21.2987   18.4401  -12.6297 N   0  0  0  0  0  0
  -22.4164   19.1791  -12.8272 C   0  0  0  0  0  0
  -22.8990   20.9147  -12.7014 C   0  0  0  0  0  0
  -24.6552   21.8402  -13.2959 C   0  0  0  0  0  0
  -25.7985   21.2606  -13.8761 F   0  0  0  0  0  0
  -24.7698   23.5090  -13.5996 C   0  0  0  0  0  0
  -23.3151   24.3895  -13.4060 C   0  0  0  0  0  0
  -21.7268   23.6819  -12.9613 C   0  0  0  0  0  0
  -21.4509   21.9657  -12.5917 C   0  0  0  0  0  0
  -19.6278   18.6742  -11.3331 H   0  0  0  0  0  0
  1  2  1  0  0  0
  2  3  1  0  0  0
  2  6  1  0  0  0
  3  4  2  0  0  0
  4  5  1  0  0  0
  5  6  2  0  0  0
  6  7  1  0  0  0
  7  8  1  0  0  0
  8  9  2  0  0  0
  8 10  1  0  0  0
 10 11  1  0  0  0
 10 20  1  0  0  0
 11 12  2  0  0  0
 12 13  1  0  0  0
 13 14  2  0  0  0
 13 19  1  0  0  0
 14 15  1  0  0  0
 14 16  1  0  0  0
 16 17  2  0  0  0
 17 18  1  0  0  0
 18 19  2  0  0  0
M  END
>  <CHROM.0>
-62.87874440,-167.69441750,-46.46889335,63.83457115,-30.11059978,-56.03455324
-156.22915194,-162.68511793

>  <CHROM.1>
-84.77210931,92.55455136,-65.20224958,171.45057999,-20.63122198,20.02959272
-13.91282814,-0.61886969,0.19989020,0.16526774

>  <Name>
F0717-1560

>  <RI>
2.78961e+07

>  <Rbt.Current_Directory>
/home/adria/Escritorio/rDock_CMTR_LC/2pxcA_model/inputs_sah

>  <Rbt.Executable>
rbdock ($Id: //depot/dev/client3/rdock/2013.1/src/exe/rbdock.cxx#4 $)

>  <Rbt.Library>
libRbt.so (2013.1, Build901 2013/11/27)

>  <Rbt.Parameter_File>
/home/adria/Escritorio/rDock_2013.1_src/data/scripts/dock.prm

>  <Rbt.Receptor>
sah_rdock.prm

>  <SCORE>
-306.516

>  <SCORE.INTER>
-9.55416

>  <SCORE.INTER.CONST>
1

>  <SCORE.INTER.POLAR>
-0.826125

>  <SCORE.INTER.REPUL>
0.0369361

>  <SCORE.INTER.ROT>
4

>  <SCORE.INTER.VDW>
-16.33

>  <SCORE.INTER.norm>
-0.502851

>  <SCORE.INTRA>
-290.394

>  <SCORE.INTRA.DIHEDRAL>
-0.294811

>  <SCORE.INTRA.DIHEDRAL.0>
9.32597

>  <SCORE.INTRA.POLAR>
0

>  <SCORE.INTRA.POLAR.0>
0

>  <SCORE.INTRA.REPUL>
0

>  <SCORE.INTRA.REPUL.0>
0

>  <SCORE.INTRA.VDW>
-290.247

>  <SCORE.INTRA.VDW.0>
288.22

>  <SCORE.INTRA.norm>
-15.2839

>  <SCORE.RESTR>
0

>  <SCORE.RESTR.CAVITY>
0

>  <SCORE.RESTR.norm>
0

>  <SCORE.SYSTEM>
-6.5675

>  <SCORE.SYSTEM.CONST>
0

>  <SCORE.SYSTEM.DIHEDRAL>
6.53458

>  <SCORE.SYSTEM.POLAR>
-3.77318

>  <SCORE.SYSTEM.VDW>
2.99404

>  <SCORE.SYSTEM.norm>
-0.345658

>  <SCORE.heavy>
19

>  <SCORE.norm>
-16.1324

$$$$
F0717-1560
  rDOCK(R)          3D
libRbt.so/2013.1/901 2013/11/27
 20 21  0  0  0  0  0  0  0  0999 V2000
  -14.1902   19.7733  -17.3507 C   0  0  0  0  0  0
  -15.0009   18.5576  -17.2895 N   0  0  0  0  0  0
  -13.9141   17.0443  -17.2843 C   0  0  0  0  0  0
  -15.1149   15.5578  -17.7345 C   0  0  0  0  0  0
  -16.8662   16.2478  -17.9313 C   0  0  0  0  0  0
  -16.7550   17.9784  -17.7041 C   0  0  0  0  0  0
  -17.9760   18.7546  -17.7210 C   0  0  0  0  0  0
  -17.6595   19.6848  -16.6489 C   0  0  0  0  0  0
  -17.2751   20.8354  -16.8375 O   0  0  0  0  0  0
  -18.0362   19.1514  -15.4178 N   0  0  0  0  0  0
  -18.8362   17.9673  -15.1568 N   0  0  0  0  0  0
  -19.7369   17.7048  -14.1798 C   0  0  0  0  0  0
  -20.3655   18.5256  -12.6992 C   0  0  0  0  0  0
  -22.0641   18.1144  -11.5857 C   0  0  0  0  0  0
  -23.0113   17.0917  -11.7769 F   0  0  0  0  0  0
  -22.8039   19.2539  -10.5636 C   0  0  0  0  0  0
  -22.0628   20.7961  -10.5295 C   0  0  0  0  0  0
  -20.6334   21.2806  -11.5006 C   0  0  0  0  0  0
  -19.7384   20.2016  -12.5927 C   0  0  0  0  0  0
  -17.8169   19.7610  -14.6357 H   0  0  0  0  0  0
  1  2  1  0  0  0
  2  3  1  0  0  0
  2  6  1  0  0  0
  3  4  2  0  0  0
  4  5  1  0  0  0
  5  6  2  0  0  0
  6  7  1  0  0  0
  7  8  1  0  0  0
  8  9  2  0  0  0
  8 10  1  0  0  0
 10 11  1  0  0  0
 10 20  1  0  0  0
 11 12  2  0  0  0
 12 13  1  0  0  0
 13 14  2  0  0  0
 13 19  1  0  0  0
 14 15  1  0  0  0
 14 16  1  0  0  0
 16 17  2  0  0  0
 17 18  1  0  0  0
 18 19  2  0  0  0
M  END
>  <CHROM.0>
-63.14791405,-74.68764284,-166.64487155,64.53980692,-29.94648083,59.66133188
-38.02561453,-157.09141311

>  <CHROM.1>
-32.72228284,100.97997951,-144.91766019,164.27350886,-18.55401514,18.66136492
-14.86513765,-0.32628444,0.70907681,0.30117687

>  <Name>
F0717-1560

>  <RI>
2.78961e+07

>  <Rbt.Current_Directory>
/home/adria/Escritorio/rDock_CMTR_LC/2pxcA_model/inputs_sah

>  <Rbt.Executable>
rbdock ($Id: //depot/dev/client3/rdock/2013.1/src/exe/rbdock.cxx#4 $)

>  <Rbt.Library>
libRbt.so (2013.1, Build901 2013/11/27)

>  <Rbt.Parameter_File>
/home/adria/Escritorio/rDock_2013.1_src/data/scripts/dock.prm

>  <Rbt.Receptor>
sah_rdock.prm

>  <SCORE>
-311.196

>  <SCORE.INTER>
-11.5215

>  <SCORE.INTER.CONST>
1

>  <SCORE.INTER.POLAR>
-0.848528

>  <SCORE.INTER.REPUL>
0

>  <SCORE.INTER.ROT>
4

>  <SCORE.INTER.VDW>
-18.0366

>  <SCORE.INTER.norm>
-0.606397

>  <SCORE.INTRA>
-292.216

>  <SCORE.INTRA.DIHEDRAL>
-4.53867

>  <SCORE.INTRA.DIHEDRAL.0>
9.32597

>  <SCORE.INTRA.POLAR>
0

>  <SCORE.INTRA.POLAR.0>
0

>  <SCORE.INTRA.REPUL>
0

>  <SCORE.INTRA.REPUL.0>
0

>  <SCORE.INTRA.VDW>
-289.947

>  <SCORE.INTRA.VDW.0>
288.22

>  <SCORE.INTRA.norm>
-15.3798

>  <SCORE.RESTR>
0

>  <SCORE.RESTR.CAVITY>
0

>  <SCORE.RESTR.norm>
0

>  <SCORE.SYSTEM>
-7.45829

>  <SCORE.SYSTEM.CONST>
0

>  <SCORE.SYSTEM.DIHEDRAL>
6.98922

>  <SCORE.SYSTEM.POLAR>
-3.99802

>  <SCORE.SYSTEM.REPUL>
0.041409

>  <SCORE.SYSTEM.VDW>
2.43332

>  <SCORE.SYSTEM.norm>
-0.392542

>  <SCORE.heavy>
19

>  <SCORE.norm>
-16.3787

$$$$
F0717-1560
  rDOCK(R)          3D
libRbt.so/2013.1/901 2013/11/27
 20 21  0  0  0  0  0  0  0  0999 V2000
  -22.2172   25.3792   -9.3878 C   0  0  0  0  0  0
  -22.7845   24.0586   -9.6577 N   0  0  0  0  0  0
  -23.4214   23.2849   -8.0870 C   0  0  0  0  0  0
  -23.6390   21.3809   -8.5133 C   0  0  0  0  0  0
  -23.1751   21.1221  -10.3298 C   0  0  0  0  0  0
  -22.6552   22.6752  -10.9437 C   0  0  0  0  0  0
  -22.3172   22.7824  -12.3465 C   0  0  0  0  0  0
  -20.9350   23.2126  -12.2068 C   0  0  0  0  0  0
  -20.6005   24.3798  -12.0253 O   0  0  0  0  0  0
  -20.0907   22.1077  -12.1160 N   0  0  0  0  0  0
  -20.4512   20.7112  -11.9427 N   0  0  0  0  0  0
  -20.1858   19.6265  -12.7092 C   0  0  0  0  0  0
  -19.3955   19.2846  -14.2965 C   0  0  0  0  0  0
  -18.8008   17.4735  -15.1091 C   0  0  0  0  0  0
  -18.9434   16.1817  -14.5698 F   0  0  0  0  0  0
  -17.6274   17.3441  -16.3326 C   0  0  0  0  0  0
  -16.9365   18.8241  -16.8431 C   0  0  0  0  0  0
  -17.3269   20.4389  -16.1639 C   0  0  0  0  0  0
  -18.5421   20.7399  -14.9027 C   0  0  0  0  0  0
  -19.1105   22.3610  -12.0351 H   0  0  0  0  0  0
  1  2  1  0  0  0
  2  3  1  0  0  0
  2  6  1  0  0  0
  3  4  2  0  0  0
  4  5  1  0  0  0
  5  6  2  0  0  0
  6  7  1  0  0  0
  7  8  1  0  0  0
  8  9  2  0  0  0
  8 10  1  0  0  0
 10 11  1  0  0  0
 10 20  1  0  0  0
 11 12  2  0  0  0
 12 13  1  0  0  0
 13 14  2  0  0  0
 13 19  1  0  0  0
 14 15  1  0  0  0
 14 16  1  0  0  0
 16 17  2  0  0  0
 17 18  1  0  0  0
 18 19  2  0  0  0
M  END
>  <CHROM.0>
-60.51449198,68.14084401,75.26753301,151.95908845,-29.72048882,63.82199725
-36.23815241,-160.66068222

>  <CHROM.1>
66.43111905,-83.52311654,121.65429529,167.38723520,-20.51545022,21.09487649
-12.54069280,-2.44709607,-0.86072993,-3.04857001

>  <Name>
F0717-1560

>  <RI>
2.78961e+07

>  <Rbt.Current_Directory>
/home/adria/Escritorio/rDock_CMTR_LC/2pxcA_model/inputs_sah

>  <Rbt.Executable>
rbdock ($Id: //depot/dev/client3/rdock/2013.1/src/exe/rbdock.cxx#4 $)

>  <Rbt.Library>
libRbt.so (2013.1, Build901 2013/11/27)

>  <Rbt.Parameter_File>
/home/adria/Escritorio/rDock_2013.1_src/data/scripts/dock.prm

>  <Rbt.Receptor>
sah_rdock.prm

>  <SCORE>
-305.547

>  <SCORE.INTER>
-10.1489

>  <SCORE.INTER.CONST>
1

>  <SCORE.INTER.POLAR>
-0.916515

>  <SCORE.INTER.REPUL>
0

>  <SCORE.INTER.ROT>
4

>  <SCORE.INTER.VDW>
-16.4327

>  <SCORE.INTER.norm>
-0.534152

>  <SCORE.INTRA>
-291.341

>  <SCORE.INTRA.DIHEDRAL>
-2.64849

>  <SCORE.INTRA.DIHEDRAL.0>
9.32597

>  <SCORE.INTRA.POLAR>
0

>  <SCORE.INTRA.POLAR.0>
0

>  <SCORE.INTRA.REPUL>
0

>  <SCORE.INTRA.REPUL.0>
0

>  <SCORE.INTRA.VDW>
-290.017

>  <SCORE.INTRA.VDW.0>
288.22

>  <SCORE.INTRA.norm>
-15.3338

>  <SCORE.RESTR>
0

>  <SCORE.RESTR.CAVITY>
0

>  <SCORE.RESTR.norm>
0

>  <SCORE.SYSTEM>
-4.05635

>  <SCORE.SYSTEM.CONST>
0

>  <SCORE.SYSTEM.DIHEDRAL>
9.53775

>  <SCORE.SYSTEM.POLAR>
-3.79484

>  <SCORE.SYSTEM.VDW>
4.07725

>  <SCORE.SYSTEM.norm>
-0.213492

>  <SCORE.heavy>
19

>  <SCORE.norm>
-16.0814

$$$$
F0717-1560
  rDOCK(R)          3D
libRbt.so/2013.1/901 2013/11/27
 20 21  0  0  0  0  0  0  0  0999 V2000
  -25.4473   24.0800  -10.4091 C   0  0  0  0  0  0
  -24.0385   24.4511  -10.2824 N   0  0  0  0  0  0
  -23.3395   23.8312   -8.6703 C   0  0  0  0  0  0
  -21.6735   24.8393   -8.4205 C   0  0  0  0  0  0
  -21.4323   25.9688   -9.9198 C   0  0  0  0  0  0
  -22.8280   25.7448  -10.9498 C   0  0  0  0  0  0
  -22.8636   26.4361  -12.2204 C   0  0  0  0  0  0
  -23.5033   25.4002  -13.0158 C   0  0  0  0  0  0
  -24.5733   25.5527  -13.5982 O   0  0  0  0  0  0
  -22.6476   24.3116  -13.1720 N   0  0  0  0  0  0
  -21.2377   24.2193  -12.8344 N   0  0  0  0  0  0
  -20.4334   23.1407  -12.6779 C   0  0  0  0  0  0
  -20.6068   21.3433  -12.6893 C   0  0  0  0  0  0
  -19.1635   19.8822  -12.9652 C   0  0  0  0  0  0
  -17.7794   20.0431  -13.1602 F   0  0  0  0  0  0
  -19.5273   18.2995  -13.4684 C   0  0  0  0  0  0
  -21.1840   17.9882  -13.7633 C   0  0  0  0  0  0
  -22.5062   19.1934  -13.6215 C   0  0  0  0  0  0
  -22.2907   20.8746  -13.0874 C   0  0  0  0  0  0
  -23.0606   23.5538  -13.7074 H   0  0  0  0  0  0
  1  2  1  0  0  0
  2  3  1  0  0  0
  2  6  1  0  0  0
  3  4  2  0  0  0
  4  5  1  0  0  0
  5  6  2  0  0  0
  6  7  1  0  0  0
  7  8  1  0  0  0
  8  9  2  0  0  0
  8 10  1  0  0  0
 10 11  1  0  0  0
 10 20  1  0  0  0
 11 12  2  0  0  0
 12 13  1  0  0  0
 13 14  2  0  0  0
 13 19  1  0  0  0
 14 15  1  0  0  0
 14 16  1  0  0  0
 16 17  2  0  0  0
 17 18  1  0  0  0
 18 19  2  0  0  0
M  END
>  <CHROM.0>
-62.64697294,-74.05572085,-46.94223559,-59.52408257,-31.22141689,62.54458797
-36.54336903,-165.86073570

>  <CHROM.1>
-30.40877849,120.18732676,163.24026290,160.16458439,-21.93485461,22.92851827
-12.08155288,2.14989872,-0.47727877,0.67022091

>  <Name>
F0717-1560

>  <RI>
2.78961e+07

>  <Rbt.Current_Directory>
/home/adria/Escritorio/rDock_CMTR_LC/2pxcA_model/inputs_sah

>  <Rbt.Executable>
rbdock ($Id: //depot/dev/client3/rdock/2013.1/src/exe/rbdock.cxx#4 $)

>  <Rbt.Library>
libRbt.so (2013.1, Build901 2013/11/27)

>  <Rbt.Parameter_File>
/home/adria/Escritorio/rDock_2013.1_src/data/scripts/dock.prm

>  <Rbt.Receptor>
sah_rdock.prm

>  <SCORE>
-310.145

>  <SCORE.INTER>
-10.2176

>  <SCORE.INTER.CONST>
1

>  <SCORE.INTER.POLAR>
-0.386748

>  <SCORE.INTER.REPUL>
0

>  <SCORE.INTER.ROT>
4

>  <SCORE.INTER.VDW>
-18.3026

>  <SCORE.INTER.norm>
-0.537766

>  <SCORE.INTRA>
-292.476

>  <SCORE.INTRA.DIHEDRAL>
-5.1776

>  <SCORE.INTRA.DIHEDRAL.0>
9.32597

>  <SCORE.INTRA.POLAR>
0

>  <SCORE.INTRA.POLAR.0>
0

>  <SCORE.INTRA.REPUL>
0

>  <SCORE.INTRA.REPUL.0>
0

>  <SCORE.INTRA.VDW>
-289.887

>  <SCORE.INTRA.VDW.0>
288.22

>  <SCORE.INTRA.norm>
-15.3935

>  <SCORE.RESTR>
0

>  <SCORE.RESTR.CAVITY>
0

>  <SCORE.RESTR.norm>
0

>  <SCORE.SYSTEM>
-7.45091

>  <SCORE.SYSTEM.CONST>
0

>  <SCORE.SYSTEM.DIHEDRAL>
6.23957

>  <SCORE.SYSTEM.POLAR>
-4.03132

>  <SCORE.SYSTEM.REPUL>
0.0403661

>  <SCORE.SYSTEM.VDW>
2.93395

>  <SCORE.SYSTEM.norm>
-0.392153

>  <SCORE.heavy>
19

>  <SCORE.norm>
-16.3234

$$$$
F0717-1560
  rDOCK(R)          3D
libRbt.so/2013.1/901 2013/11/27
 20 21  0  0  0  0  0  0  0  0999 V2000
  -14.2343   19.7711  -17.0714 C   0  0  0  0  0  0
  -15.0250   18.5434  -17.1498 N   0  0  0  0  0  0
  -13.9132   17.0490  -17.1932 C   0  0  0  0  0  0
  -15.0586   15.5847  -17.8242 C   0  0  0  0  0  0
  -16.8076   16.2636  -18.0728 C   0  0  0  0  0  0
  -16.7412   17.9734  -17.7104 C   0  0  0  0  0  0
  -17.9729   18.7319  -17.7419 C   0  0  0  0  0  0
  -17.6855   19.6620  -16.6615 C   0  0  0  0  0  0
  -17.2879   20.8098  -16.8394 O   0  0  0  0  0  0
  -18.1054   19.1332  -15.4425 N   0  0  0  0  0  0
  -18.9211   17.9546  -15.2058 N   0  0  0  0  0  0
  -19.8267   17.6849  -14.2354 C   0  0  0  0  0  0
  -20.4471   18.4846  -12.7400 C   0  0  0  0  0  0
  -22.1431   18.0620  -11.6267 C   0  0  0  0  0  0
  -23.0945   17.0455  -11.8303 F   0  0  0  0  0  0
  -22.8753   19.1879  -10.5844 C   0  0  0  0  0  0
  -22.1288   20.7268  -10.5291 C   0  0  0  0  0  0
  -20.7012   21.2216  -11.4977 C   0  0  0  0  0  0
  -19.8139   20.1567  -12.6098 C   0  0  0  0  0  0
  -17.9078   19.7428  -14.6547 H   0  0  0  0  0  0
  1  2  1  0  0  0
  2  3  1  0  0  0
  2  6  1  0  0  0
  3  4  2  0  0  0
  4  5  1  0  0  0
  5  6  2  0  0  0
  6  7  1  0  0  0
  7  8  1  0  0  0
  8  9  2  0  0  0
  8 10  1  0  0  0
 10 11  1  0  0  0
 10 20  1  0  0  0
 11 12  2  0  0  0
 12 13  1  0  0  0
 13 14  2  0  0  0
 13 19  1  0  0  0
 14 15  1  0  0  0
 14 16  1  0  0  0
 16 17  2  0  0  0
 17 18  1  0  0  0
 18 19  2  0  0  0
M  END
>  <CHROM.0>
179.49547502,64.55113933,72.96873779,63.82828152,-31.07066997,59.71876453
-38.02410925,-164.92264994

>  <CHROM.1>
-27.90401312,99.36599232,-147.10042497,164.93284564,-18.59407062,18.63629917
-14.86683799,-0.34303454,0.69012079,0.33629552

>  <Name>
F0717-1560

>  <RI>
2.78961e+07

>  <Rbt.Current_Directory>
/home/adria/Escritorio/rDock_CMTR_LC/2pxcA_model/inputs_sah

>  <Rbt.Executable>
rbdock ($Id: //depot/dev/client3/rdock/2013.1/src/exe/rbdock.cxx#4 $)

>  <Rbt.Library>
libRbt.so (2013.1, Build901 2013/11/27)

>  <Rbt.Parameter_File>
/home/adria/Escritorio/rDock_2013.1_src/data/scripts/dock.prm

>  <Rbt.Receptor>
sah_rdock.prm

>  <SCORE>
-310.806

>  <SCORE.INTER>
-11.6814

>  <SCORE.INTER.CONST>
1

>  <SCORE.INTER.POLAR>
-0.839536

>  <SCORE.INTER.REPUL>
0

>  <SCORE.INTER.ROT>
4

>  <SCORE.INTER.VDW>
-18.227

>  <SCORE.INTER.norm>
-0.61481

>  <SCORE.INTRA>
-292.103

>  <SCORE.INTRA.DIHEDRAL>
-4.42661

>  <SCORE.INTRA.DIHEDRAL.0>
9.32597

>  <SCORE.INTRA.POLAR>
0

>  <SCORE.INTRA.POLAR.0>
0

>  <SCORE.INTRA.REPUL>
0

>  <SCORE.INTRA.REPUL.0>
0

>  <SCORE.INTRA.VDW>
-289.89

>  <SCORE.INTRA.VDW.0>
288.22

>  <SCORE.INTRA.norm>
-15.3739

>  <SCORE.RESTR>
0

>  <SCORE.RESTR.CAVITY>
0

>  <SCORE.RESTR.norm>
0

>  <SCORE.SYSTEM>
-7.02136

>  <SCORE.SYSTEM.CONST>
0

>  <SCORE.SYSTEM.DIHEDRAL>
5.3634

>  <SCORE.SYSTEM.POLAR>
-3.6843

>  <SCORE.SYSTEM.VDW>
2.82356

>  <SCORE.SYSTEM.norm>
-0.369545

>  <SCORE.heavy>
19

>  <SCORE.norm>
-16.3582

$$$$
F0717-1560
  rDOCK(R)          3D
libRbt.so/2013.1/901 2013/11/27
 20 21  0  0  0  0  0  0  0  0999 V2000
  -23.4353   25.8319  -12.4915 C   0  0  0  0  0  0
  -22.3121   25.2430  -11.7634 N   0  0  0  0  0  0
  -21.9193   26.2447  -10.2422 C   0  0  0  0  0  0
  -20.1241   25.6616   -9.7024 C   0  0  0  0  0  0
  -19.5576   24.3037  -10.8929 C   0  0  0  0  0  0
  -20.8249   24.1162  -12.0838 C   0  0  0  0  0  0
  -20.6857   23.0746  -13.0784 C   0  0  0  0  0  0
  -21.4924   22.0489  -12.4363 C   0  0  0  0  0  0
  -22.6928   21.8979  -12.6442 O   0  0  0  0  0  0
  -20.6799   21.1692  -11.7237 N   0  0  0  0  0  0
  -19.2310   21.0649  -11.7442 N   0  0  0  0  0  0
  -18.4067   20.3401  -12.5377 C   0  0  0  0  0  0
  -18.5707   19.1119  -13.8513 C   0  0  0  0  0  0
  -17.2882   18.6830  -15.4215 C   0  0  0  0  0  0
  -16.0394   19.2606  -15.7162 F   0  0  0  0  0  0
  -17.7903   17.8998  -16.8444 C   0  0  0  0  0  0
  -19.4536   17.5033  -16.9134 C   0  0  0  0  0  0
  -20.6637   17.8862  -15.6445 C   0  0  0  0  0  0
  -20.2924   18.6774  -14.0972 C   0  0  0  0  0  0
  -21.2036   20.4444  -11.2423 H   0  0  0  0  0  0
  1  2  1  0  0  0
  2  3  1  0  0  0
  2  6  1  0  0  0
  3  4  2  0  0  0
  4  5  1  0  0  0
  5  6  2  0  0  0
  6  7  1  0  0  0
  7  8  1  0  0  0
  8  9  2  0  0  0
  8 10  1  0  0  0
 10 11  1  0  0  0
 10 20  1  0  0  0
 11 12  2  0  0  0
 12 13  1  0  0  0
 13 14  2  0  0  0
 13 19  1  0  0  0
 14 15  1  0  0  0
 14 16  1  0  0  0
 16 17  2  0  0  0
 17 18  1  0  0  0
 18 19  2  0  0  0
M  END
>  <CHROM.0>
-63.68449820,-75.22119818,110.87319033,65.26960850,-31.32407092,-174.29382389
-157.16094864,-160.16154625

>  <CHROM.1>
-76.25641936,91.90798023,-88.85148466,152.44466970,-20.06255568,21.58417496
-13.16878760,1.98538921,-0.15200496,0.65348581

>  <Name>
F0717-1560

>  <RI>
2.78961e+07

>  <Rbt.Current_Directory>
/home/adria/Escritorio/rDock_CMTR_LC/2pxcA_model/inputs_sah

>  <Rbt.Executable>
rbdock ($Id: //depot/dev/client3/rdock/2013.1/src/exe/rbdock.cxx#4 $)

>  <Rbt.Library>
libRbt.so (2013.1, Build901 2013/11/27)

>  <Rbt.Parameter_File>
/home/adria/Escritorio/rDock_2013.1_src/data/scripts/dock.prm

>  <Rbt.Receptor>
sah_rdock.prm

>  <SCORE>
-307.443

>  <SCORE.INTER>
-10.101

>  <SCORE.INTER.CONST>
1

>  <SCORE.INTER.POLAR>
0

>  <SCORE.INTER.REPUL>
0

>  <SCORE.INTER.ROT>
4

>  <SCORE.INTER.VDW>
-19.501

>  <SCORE.INTER.norm>
-0.531629

>  <SCORE.INTRA>
-289.808

>  <SCORE.INTRA.DIHEDRAL>
0.717146

>  <SCORE.INTRA.DIHEDRAL.0>
9.32597

>  <SCORE.INTRA.POLAR>
0

>  <SCORE.INTRA.POLAR.0>
0

>  <SCORE.INTRA.REPUL>
0

>  <SCORE.INTRA.REPUL.0>
0

>  <SCORE.INTRA.VDW>
-290.167

>  <SCORE.INTRA.VDW.0>
288.22

>  <SCORE.INTRA.norm>
-15.2531

>  <SCORE.RESTR>
0

>  <SCORE.RESTR.CAVITY>
0

>  <SCORE.RESTR.norm>
0

>  <SCORE.SYSTEM>
-7.53436

>  <SCORE.SYSTEM.CONST>
0

>  <SCORE.SYSTEM.DIHEDRAL>
9.80978

>  <SCORE.SYSTEM.POLAR>
-4.70289

>  <SCORE.SYSTEM.REPUL>
0.0422585

>  <SCORE.SYSTEM.VDW>
3.33928

>  <SCORE.SYSTEM.norm>
-0.396545

>  <SCORE.heavy>
19

>  <SCORE.norm>
-16.1812

$$$$
