F1524-0428
  rDOCK(R)          3D
libRbt.so/2013.1/901 2013/11/27
 31 34  0  0  0  0  0  0  0  0999 V2000
  -17.2670   12.5552  -18.6604 C   0  0  0  0  0  0
  -17.1112   13.9849  -18.1070 C   0  0  0  0  0  0
  -16.5886   14.8809  -19.2553 C   0  0  0  0  0  0
  -16.0568   13.9369  -16.9930 C   0  0  0  0  0  0
  -15.9816   15.2450  -16.3017 C   0  0  0  0  0  0
  -14.9177   15.5268  -15.6015 O   0  0  0  0  0  0
  -17.1250   16.1754  -16.2713 C   0  0  0  0  0  0
  -18.3512   15.8003  -16.7145 C   0  0  0  0  0  0
  -18.4699   14.5132  -17.5226 C   0  0  0  0  0  0
  -19.4600   16.6043  -16.3852 N   0  0  0  0  0  0
  -19.4310   17.7228  -15.5113 C   0  0  0  0  0  0
  -18.2296   18.2023  -15.1622 C   0  0  0  0  0  0
  -18.0904   19.3312  -14.3357 C   0  0  0  0  0  0
  -17.9764   20.2554  -13.6590 N   0  0  0  0  0  0
  -16.9267   17.5158  -15.6412 C   0  0  0  0  0  0
  -16.0215   18.4095  -16.4660 C   0  0  0  0  0  0
  -15.6478   19.7399  -16.4220 C   0  0  0  0  0  0
  -14.6385   19.9047  -17.4084 C   0  0  0  0  0  0
  -14.5140   18.6902  -18.0379 C   0  0  0  0  0  0
  -15.3690   17.7912  -17.4951 O   0  0  0  0  0  0
  -20.8093   18.6710  -14.9189 S   0  0  0  0  0  0
  -22.1237   17.4380  -14.2877 C   0  0  0  0  0  0
  -23.7449   17.5114  -14.5314 C   0  0  0  0  0  0
  -24.4474   17.1344  -13.5701 O   0  0  0  0  0  0
  -24.4406   17.8852  -15.8651 N   0  0  0  0  0  0
  -25.5277   18.9568  -16.0820 C   0  0  0  0  0  0
  -25.0898   20.2501  -17.0300 C   0  0  0  0  0  0
  -24.3657   19.9129  -18.2148 O   0  0  0  0  0  0
  -23.1361   19.2547  -17.8536 C   0  0  0  0  0  0
  -23.5104   17.8437  -17.1415 C   0  0  0  0  0  0
  -20.3725   16.3406  -16.7539 H   0  0  0  0  0  0
  1  2  1  0  0  0
  2  3  1  0  0  0
  2  4  1  0  0  0
  2  9  1  0  0  0
  4  5  1  0  0  0
  5  6  2  0  0  0
  5  7  1  0  0  0
  7  8  2  0  0  0
  7 15  1  0  0  0
  8  9  1  0  0  0
  8 10  1  0  0  0
 10 11  1  0  0  0
 10 31  1  0  0  0
 11 12  2  0  0  0
 11 21  1  0  0  0
 12 13  1  0  0  0
 12 15  1  0  0  0
 13 14  3  0  0  0
 15 16  1  0  0  0
 16 17  2  0  0  0
 16 20  1  0  0  0
 17 18  1  0  0  0
 18 19  2  0  0  0
 19 20  1  0  0  0
 21 22  1  0  0  0
 22 23  1  0  0  0
 23 24  2  0  0  0
 23 25  1  0  0  0
 25 26  1  0  0  0
 25 30  1  0  0  0
 26 27  1  0  0  0
 27 28  1  0  0  0
 28 29  1  0  0  0
 29 30  1  0  0  0
M  END
>  <CHROM.0>
-178.75881982,68.85438822,-45.23745157,-65.08777818,27.64099902,-57.63543660
-36.94195078,-160.52538850

>  <CHROM.1>
48.32503236,171.32449014,-137.43235102,-143.34595667,-127.75180738,-19.32628356
17.43063748,-16.34439631,0.31329596,-0.03112184,-2.77579948

>  <Name>
F1524-0428

>  <RI>
2.00482e+07

>  <Rbt.Current_Directory>
/home/adria/Escritorio/rDock_CMTR_LC/2pxcA_model/inputs_sah

>  <Rbt.Executable>
rbdock ($Id: //depot/dev/client3/rdock/2013.1/src/exe/rbdock.cxx#4 $)

>  <Rbt.Library>
libRbt.so (2013.1, Build901 2013/11/27)

>  <Rbt.Parameter_File>
/home/adria/Escritorio/rDock_2013.1_src/data/scripts/dock.prm

>  <Rbt.Receptor>
sah_rdock.prm

>  <SCORE>
-36.8154

>  <SCORE.INTER>
-14.5214

>  <SCORE.INTER.CONST>
1

>  <SCORE.INTER.POLAR>
-0.569131

>  <SCORE.INTER.REPUL>
0

>  <SCORE.INTER.ROT>
5

>  <SCORE.INTER.VDW>
-22.9863

>  <SCORE.INTER.norm>
-0.484046

>  <SCORE.INTRA>
-27.7043

>  <SCORE.INTRA.DIHEDRAL>
1.11436

>  <SCORE.INTRA.DIHEDRAL.0>
6.4549

>  <SCORE.INTRA.POLAR>
0

>  <SCORE.INTRA.POLAR.0>
0

>  <SCORE.INTRA.REPUL>
0

>  <SCORE.INTRA.REPUL.0>
0

>  <SCORE.INTRA.VDW>
-28.2615

>  <SCORE.INTRA.VDW.0>
25.3375

>  <SCORE.INTRA.norm>
-0.923478

>  <SCORE.RESTR>
0

>  <SCORE.RESTR.CAVITY>
0

>  <SCORE.RESTR.norm>
0

>  <SCORE.SYSTEM>
5.41029

>  <SCORE.SYSTEM.CONST>
0

>  <SCORE.SYSTEM.DIHEDRAL>
6.77719

>  <SCORE.SYSTEM.POLAR>
-3.42674

>  <SCORE.SYSTEM.VDW>
13.6726

>  <SCORE.SYSTEM.norm>
0.180343

>  <SCORE.heavy>
30

>  <SCORE.norm>
-1.22718

$$$$
F1524-0428
  rDOCK(R)          3D
libRbt.so/2013.1/901 2013/11/27
 31 34  0  0  0  0  0  0  0  0999 V2000
  -25.7063   22.7479   -8.0740 C   0  0  0  0  0  0
  -25.0805   21.7829   -9.0995 C   0  0  0  0  0  0
  -26.0021   21.7524  -10.3421 C   0  0  0  0  0  0
  -25.0543   20.3864   -8.4639 C   0  0  0  0  0  0
  -24.3090   19.4431   -9.3295 C   0  0  0  0  0  0
  -24.4905   18.1616   -9.1668 O   0  0  0  0  0  0
  -23.2728   19.9048  -10.2714 C   0  0  0  0  0  0
  -22.8273   21.1862  -10.2569 C   0  0  0  0  0  0
  -23.6174   22.2218   -9.4650 C   0  0  0  0  0  0
  -21.6418   21.4937  -10.9528 N   0  0  0  0  0  0
  -20.7869   20.5461  -11.5747 C   0  0  0  0  0  0
  -21.2539   19.2995  -11.7260 C   0  0  0  0  0  0
  -20.5044   18.2967  -12.3660 C   0  0  0  0  0  0
  -19.8909   17.4756  -12.8899 N   0  0  0  0  0  0
  -22.6458   18.8970  -11.1793 C   0  0  0  0  0  0
  -23.6095   18.4016  -12.2396 C   0  0  0  0  0  0
  -23.9200   17.1713  -12.7886 C   0  0  0  0  0  0
  -25.0369   17.3841  -13.6409 C   0  0  0  0  0  0
  -25.2883   18.7342  -13.6155 C   0  0  0  0  0  0
  -24.4098   19.3592  -12.7961 O   0  0  0  0  0  0
  -19.2009   20.8395  -12.3151 S   0  0  0  0  0  0
  -19.4990   21.2988  -14.1445 C   0  0  0  0  0  0
  -19.3797   20.3047  -15.4447 C   0  0  0  0  0  0
  -20.3397   19.5230  -15.6095 O   0  0  0  0  0  0
  -18.1487   20.1851  -16.3789 N   0  0  0  0  0  0
  -16.6748   20.0088  -15.9621 C   0  0  0  0  0  0
  -15.9690   18.5664  -16.3920 C   0  0  0  0  0  0
  -16.2497   18.1296  -17.7232 O   0  0  0  0  0  0
  -17.6691   17.9341  -17.8738 C   0  0  0  0  0  0
  -18.3961   19.3778  -17.7144 C   0  0  0  0  0  0
  -21.3330   22.4645  -10.9725 H   0  0  0  0  0  0
  1  2  1  0  0  0
  2  3  1  0  0  0
  2  4  1  0  0  0
  2  9  1  0  0  0
  4  5  1  0  0  0
  5  6  2  0  0  0
  5  7  1  0  0  0
  7  8  2  0  0  0
  7 15  1  0  0  0
  8  9  1  0  0  0
  8 10  1  0  0  0
 10 11  1  0  0  0
 10 31  1  0  0  0
 11 12  2  0  0  0
 11 21  1  0  0  0
 12 13  1  0  0  0
 12 15  1  0  0  0
 13 14  3  0  0  0
 15 16  1  0  0  0
 16 17  2  0  0  0
 16 20  1  0  0  0
 17 18  1  0  0  0
 18 19  2  0  0  0
 19 20  1  0  0  0
 21 22  1  0  0  0
 22 23  1  0  0  0
 23 24  2  0  0  0
 23 25  1  0  0  0
 25 26  1  0  0  0
 25 30  1  0  0  0
 26 27  1  0  0  0
 27 28  1  0  0  0
 28 29  1  0  0  0
 29 30  1  0  0  0
M  END
>  <CHROM.0>
-60.83216100,-70.58748756,-7.92935292,63.10362705,167.70420769,176.99395466
-156.43960176,-158.51565974

>  <CHROM.1>
-88.63649885,-137.26324572,-98.67054355,77.05769949,48.65642798,-21.55263108
19.75056301,-12.69994410,-2.50346499,-0.45758343,-2.31674812

>  <Name>
F1524-0428

>  <RI>
2.00482e+07

>  <Rbt.Current_Directory>
/home/adria/Escritorio/rDock_CMTR_LC/2pxcA_model/inputs_sah

>  <Rbt.Executable>
rbdock ($Id: //depot/dev/client3/rdock/2013.1/src/exe/rbdock.cxx#4 $)

>  <Rbt.Library>
libRbt.so (2013.1, Build901 2013/11/27)

>  <Rbt.Parameter_File>
/home/adria/Escritorio/rDock_2013.1_src/data/scripts/dock.prm

>  <Rbt.Receptor>
sah_rdock.prm

>  <SCORE>
-43.9607

>  <SCORE.INTER>
-13.4625

>  <SCORE.INTER.CONST>
1

>  <SCORE.INTER.POLAR>
-0.80461

>  <SCORE.INTER.REPUL>
0.017724

>  <SCORE.INTER.ROT>
5

>  <SCORE.INTER.VDW>
-21.2155

>  <SCORE.INTER.norm>
-0.448751

>  <SCORE.INTRA>
-27.8953

>  <SCORE.INTRA.DIHEDRAL>
1.37272

>  <SCORE.INTRA.DIHEDRAL.0>
6.4549

>  <SCORE.INTRA.POLAR>
0

>  <SCORE.INTRA.POLAR.0>
0

>  <SCORE.INTRA.REPUL>
0

>  <SCORE.INTRA.REPUL.0>
0

>  <SCORE.INTRA.VDW>
-28.5817

>  <SCORE.INTRA.VDW.0>
25.3375

>  <SCORE.INTRA.norm>
-0.929845

>  <SCORE.RESTR>
0

>  <SCORE.RESTR.CAVITY>
0

>  <SCORE.RESTR.norm>
0

>  <SCORE.SYSTEM>
-2.60279

>  <SCORE.SYSTEM.CONST>
0

>  <SCORE.SYSTEM.DIHEDRAL>
6.62853

>  <SCORE.SYSTEM.POLAR>
-4.5759

>  <SCORE.SYSTEM.REPUL>
0.0339458

>  <SCORE.SYSTEM.VDW>
9.47127

>  <SCORE.SYSTEM.norm>
-0.0867598

>  <SCORE.heavy>
30

>  <SCORE.norm>
-1.46536

$$$$
F1524-0428
  rDOCK(R)          3D
libRbt.so/2013.1/901 2013/11/27
 31 34  0  0  0  0  0  0  0  0999 V2000
  -17.8339   19.7614  -15.1852 C   0  0  0  0  0  0
  -19.2267   19.4826  -14.5877 C   0  0  0  0  0  0
  -19.2011   18.0623  -13.9743 C   0  0  0  0  0  0
  -20.2382   19.5092  -15.7414 C   0  0  0  0  0  0
  -21.6196   19.4181  -15.2141 C   0  0  0  0  0  0
  -22.5778   19.0502  -16.0191 O   0  0  0  0  0  0
  -21.9618   19.8596  -13.8495 C   0  0  0  0  0  0
  -21.0700   20.5361  -13.0829 C   0  0  0  0  0  0
  -19.6118   20.5735  -13.5254 C   0  0  0  0  0  0
  -21.5384   21.1934  -11.9283 N   0  0  0  0  0  0
  -22.9018   21.3209  -11.5537 C   0  0  0  0  0  0
  -23.7941   20.5619  -12.2039 C   0  0  0  0  0  0
  -25.1626   20.5812  -11.8818 C   0  0  0  0  0  0
  -26.2830   20.5970  -11.6182 N   0  0  0  0  0  0
  -23.3574   19.6347  -13.3649 C   0  0  0  0  0  0
  -23.6545   18.1664  -13.1319 C   0  0  0  0  0  0
  -23.6045   17.0188  -13.9012 C   0  0  0  0  0  0
  -23.8683   15.9353  -13.0207 C   0  0  0  0  0  0
  -24.1342   16.4926  -11.7938 C   0  0  0  0  0  0
  -24.0382   17.8418  -11.8613 O   0  0  0  0  0  0
  -23.5732   22.2744  -10.2159 S   0  0  0  0  0  0
  -24.6137   23.6811  -10.9809 C   0  0  0  0  0  0
  -24.0565   24.9852  -11.8066 C   0  0  0  0  0  0
  -24.8105   25.4095  -12.7073 O   0  0  0  0  0  0
  -22.6570   25.6296  -11.6373 N   0  0  0  0  0  0
  -22.0654   26.2529  -10.3572 C   0  0  0  0  0  0
  -20.7507   25.4673   -9.7110 C   0  0  0  0  0  0
  -19.7666   25.0544  -10.6611 O   0  0  0  0  0  0
  -20.3593   24.1295  -11.5932 C   0  0  0  0  0  0
  -21.4929   24.9260  -12.4411 C   0  0  0  0  0  0
  -20.8588   21.6661  -11.3343 H   0  0  0  0  0  0
  1  2  1  0  0  0
  2  3  1  0  0  0
  2  4  1  0  0  0
  2  9  1  0  0  0
  4  5  1  0  0  0
  5  6  2  0  0  0
  5  7  1  0  0  0
  7  8  2  0  0  0
  7 15  1  0  0  0
  8  9  1  0  0  0
  8 10  1  0  0  0
 10 11  1  0  0  0
 10 31  1  0  0  0
 11 12  2  0  0  0
 11 21  1  0  0  0
 12 13  1  0  0  0
 12 15  1  0  0  0
 13 14  3  0  0  0
 15 16  1  0  0  0
 16 17  2  0  0  0
 16 20  1  0  0  0
 17 18  1  0  0  0
 18 19  2  0  0  0
 19 20  1  0  0  0
 21 22  1  0  0  0
 22 23  1  0  0  0
 23 24  2  0  0  0
 23 25  1  0  0  0
 25 26  1  0  0  0
 25 30  1  0  0  0
 26 27  1  0  0  0
 27 28  1  0  0  0
 28 29  1  0  0  0
 29 30  1  0  0  0
M  END
>  <CHROM.0>
-60.13104584,-71.50826302,73.54365695,-60.07083892,-29.95082812,-179.36431877
-36.07984261,-164.36695507

>  <CHROM.1>
113.44686234,-56.54507709,-69.93804689,147.77486176,-60.53659565,-22.34197280
21.22699402,-12.53829901,-1.52782520,0.39636263,0.38009327

>  <Name>
F1524-0428

>  <RI>
2.00482e+07

>  <Rbt.Current_Directory>
/home/adria/Escritorio/rDock_CMTR_LC/2pxcA_model/inputs_sah

>  <Rbt.Executable>
rbdock ($Id: //depot/dev/client3/rdock/2013.1/src/exe/rbdock.cxx#4 $)

>  <Rbt.Library>
libRbt.so (2013.1, Build901 2013/11/27)

>  <Rbt.Parameter_File>
/home/adria/Escritorio/rDock_2013.1_src/data/scripts/dock.prm

>  <Rbt.Receptor>
sah_rdock.prm

>  <SCORE>
-47.5409

>  <SCORE.INTER>
-11.0883

>  <SCORE.INTER.CONST>
1

>  <SCORE.INTER.POLAR>
-0.454202

>  <SCORE.INTER.REPUL>
0.0113229

>  <SCORE.INTER.ROT>
5

>  <SCORE.INTER.VDW>
-20.0006

>  <SCORE.INTER.norm>
-0.36961

>  <SCORE.INTRA>
-28.8174

>  <SCORE.INTRA.DIHEDRAL>
1.07932

>  <SCORE.INTRA.DIHEDRAL.0>
6.4549

>  <SCORE.INTRA.POLAR>
0

>  <SCORE.INTRA.POLAR.0>
0

>  <SCORE.INTRA.REPUL>
0

>  <SCORE.INTRA.REPUL.0>
0

>  <SCORE.INTRA.VDW>
-29.3571

>  <SCORE.INTRA.VDW.0>
25.3375

>  <SCORE.INTRA.norm>
-0.96058

>  <SCORE.RESTR>
0

>  <SCORE.RESTR.CAVITY>
0

>  <SCORE.RESTR.norm>
0

>  <SCORE.SYSTEM>
-7.6352

>  <SCORE.SYSTEM.CONST>
0

>  <SCORE.SYSTEM.DIHEDRAL>
6.26354

>  <SCORE.SYSTEM.POLAR>
-4.08299

>  <SCORE.SYSTEM.REPUL>
0.0357635

>  <SCORE.SYSTEM.VDW>
2.93638

>  <SCORE.SYSTEM.norm>
-0.254507

>  <SCORE.heavy>
30

>  <SCORE.norm>
-1.5847

$$$$
F1524-0428
  rDOCK(R)          3D
libRbt.so/2013.1/901 2013/11/27
 31 34  0  0  0  0  0  0  0  0999 V2000
  -20.3242   26.1228  -10.5703 C   0  0  0  0  0  0
  -21.4426   25.0645  -10.6326 C   0  0  0  0  0  0
  -22.5485   25.6016  -11.5722 C   0  0  0  0  0  0
  -22.0186   24.9171   -9.2180 C   0  0  0  0  0  0
  -22.9818   23.7926   -9.1714 C   0  0  0  0  0  0
  -23.8425   23.7409   -8.1924 O   0  0  0  0  0  0
  -22.9071   22.6648  -10.1182 C   0  0  0  0  0  0
  -21.8482   22.5140  -10.9530 C   0  0  0  0  0  0
  -20.8811   23.6805  -11.1187 C   0  0  0  0  0  0
  -21.6785   21.2780  -11.6070 N   0  0  0  0  0  0
  -22.4555   20.1130  -11.3730 C   0  0  0  0  0  0
  -23.5829   20.2555  -10.6632 C   0  0  0  0  0  0
  -24.4449   19.1738  -10.4107 C   0  0  0  0  0  0
  -25.1507   18.2883  -10.2040 N   0  0  0  0  0  0
  -23.9813   21.6274  -10.0653 C   0  0  0  0  0  0
  -25.3142   22.1555  -10.5581 C   0  0  0  0  0  0
  -26.5848   22.2693  -10.0252 C   0  0  0  0  0  0
  -27.3508   23.0032  -10.9704 C   0  0  0  0  0  0
  -26.5253   23.2246  -12.0456 C   0  0  0  0  0  0
  -25.3034   22.6875  -11.8167 O   0  0  0  0  0  0
  -22.1916   18.4849  -12.0282 S   0  0  0  0  0  0
  -21.2735   18.6788  -13.6914 C   0  0  0  0  0  0
  -19.6597   18.5342  -13.9517 C   0  0  0  0  0  0
  -19.1110   17.5679  -13.3815 O   0  0  0  0  0  0
  -18.7767   19.5452  -14.7266 N   0  0  0  0  0  0
  -17.2944   19.3813  -15.1176 C   0  0  0  0  0  0
  -16.9824   19.2868  -16.7477 C   0  0  0  0  0  0
  -17.6924   20.2287  -17.5542 O   0  0  0  0  0  0
  -19.1092   20.0100  -17.4108 C   0  0  0  0  0  0
  -19.5168   20.3407  -15.8737 C   0  0  0  0  0  0
  -20.9051   21.1828  -12.2634 H   0  0  0  0  0  0
  1  2  1  0  0  0
  2  3  1  0  0  0
  2  4  1  0  0  0
  2  9  1  0  0  0
  4  5  1  0  0  0
  5  6  2  0  0  0
  5  7  1  0  0  0
  7  8  2  0  0  0
  7 15  1  0  0  0
  8  9  1  0  0  0
  8 10  1  0  0  0
 10 11  1  0  0  0
 10 31  1  0  0  0
 11 12  2  0  0  0
 11 21  1  0  0  0
 12 13  1  0  0  0
 12 15  1  0  0  0
 13 14  3  0  0  0
 15 16  1  0  0  0
 16 17  2  0  0  0
 16 20  1  0  0  0
 17 18  1  0  0  0
 18 19  2  0  0  0
 19 20  1  0  0  0
 21 22  1  0  0  0
 22 23  1  0  0  0
 23 24  2  0  0  0
 23 25  1  0  0  0
 25 26  1  0  0  0
 25 30  1  0  0  0
 26 27  1  0  0  0
 27 28  1  0  0  0
 28 29  1  0  0  0
 29 30  1  0  0  0
M  END
>  <CHROM.0>
-62.24415782,-75.62530178,76.42649429,65.03402827,-30.01503526,-57.56114057
-37.06223270,-162.27572921

>  <CHROM.1>
-27.02024391,-122.32381464,97.93042899,43.62368157,-173.23460836,-22.01436939
21.34620995,-12.12853473,-2.47297466,-0.57778069,-2.78920092

>  <Name>
F1524-0428

>  <RI>
2.00482e+07

>  <Rbt.Current_Directory>
/home/adria/Escritorio/rDock_CMTR_LC/2pxcA_model/inputs_sah

>  <Rbt.Executable>
rbdock ($Id: //depot/dev/client3/rdock/2013.1/src/exe/rbdock.cxx#4 $)

>  <Rbt.Library>
libRbt.so (2013.1, Build901 2013/11/27)

>  <Rbt.Parameter_File>
/home/adria/Escritorio/rDock_2013.1_src/data/scripts/dock.prm

>  <Rbt.Receptor>
sah_rdock.prm

>  <SCORE>
-51.8246

>  <SCORE.INTER>
-14.959

>  <SCORE.INTER.CONST>
1

>  <SCORE.INTER.POLAR>
-1.67315

>  <SCORE.INTER.REPUL>
0

>  <SCORE.INTER.ROT>
5

>  <SCORE.INTER.VDW>
-19.6703

>  <SCORE.INTER.norm>
-0.498632

>  <SCORE.INTRA>
-29.0867

>  <SCORE.INTRA.DIHEDRAL>
-1.67795

>  <SCORE.INTRA.DIHEDRAL.0>
6.4549

>  <SCORE.INTRA.POLAR>
0

>  <SCORE.INTRA.POLAR.0>
0

>  <SCORE.INTRA.REPUL>
0

>  <SCORE.INTRA.REPUL.0>
0

>  <SCORE.INTRA.VDW>
-28.2477

>  <SCORE.INTRA.VDW.0>
25.3375

>  <SCORE.INTRA.norm>
-0.969557

>  <SCORE.RESTR>
0

>  <SCORE.RESTR.CAVITY>
0

>  <SCORE.RESTR.norm>
0

>  <SCORE.SYSTEM>
-7.77893

>  <SCORE.SYSTEM.CONST>
0

>  <SCORE.SYSTEM.DIHEDRAL>
7.12036

>  <SCORE.SYSTEM.POLAR>
-4.13583

>  <SCORE.SYSTEM.REPUL>
0.0428829

>  <SCORE.SYSTEM.VDW>
2.50829

>  <SCORE.SYSTEM.norm>
-0.259298

>  <SCORE.heavy>
30

>  <SCORE.norm>
-1.72749

$$$$
F1524-0428
  rDOCK(R)          3D
libRbt.so/2013.1/901 2013/11/27
 31 34  0  0  0  0  0  0  0  0999 V2000
  -20.7223   26.2279  -10.3578 C   0  0  0  0  0  0
  -21.3948   24.9452  -10.8840 C   0  0  0  0  0  0
  -22.2344   25.3283  -12.1261 C   0  0  0  0  0  0
  -22.3355   24.4325   -9.7853 C   0  0  0  0  0  0
  -22.8854   23.1084  -10.1581 C   0  0  0  0  0  0
  -23.9656   22.6848   -9.5620 O   0  0  0  0  0  0
  -22.1751   22.2028  -11.0796 C   0  0  0  0  0  0
  -20.9052   22.4602  -11.4819 C   0  0  0  0  0  0
  -20.3248   23.8445  -11.2160 C   0  0  0  0  0  0
  -20.1745   21.4285  -12.1031 N   0  0  0  0  0  0
  -20.6073   20.0830  -12.2366 C   0  0  0  0  0  0
  -21.8950   19.8201  -11.9758 C   0  0  0  0  0  0
  -22.4346   18.5296  -12.1178 C   0  0  0  0  0  0
  -22.8764   17.4730  -12.2341 N   0  0  0  0  0  0
  -22.8522   20.9327  -11.4814 C   0  0  0  0  0  0
  -24.0402   21.1783  -12.3906 C   0  0  0  0  0  0
  -25.2302   20.5249  -12.6520 C   0  0  0  0  0  0
  -25.9749   21.3781  -13.5101 C   0  0  0  0  0  0
  -25.1669   22.4566  -13.7759 C   0  0  0  0  0  0
  -23.9844   22.3270  -13.1285 O   0  0  0  0  0  0
  -19.6769   18.7011  -12.8483 S   0  0  0  0  0  0
  -18.5798   19.3365  -14.2764 C   0  0  0  0  0  0
  -17.8139   18.4320  -15.4114 C   0  0  0  0  0  0
  -17.9055   17.1956  -15.2605 O   0  0  0  0  0  0
  -16.9139   18.9824  -16.5470 N   0  0  0  0  0  0
  -15.5938   19.7644  -16.3953 C   0  0  0  0  0  0
  -14.2300   18.9975  -16.9570 C   0  0  0  0  0  0
  -14.3779   18.3527  -18.2235 O   0  0  0  0  0  0
  -15.3915   17.3334  -18.1265 C   0  0  0  0  0  0
  -16.8119   18.0625  -17.8275 C   0  0  0  0  0  0
  -19.2360   21.6383  -12.4395 H   0  0  0  0  0  0
  1  2  1  0  0  0
  2  3  1  0  0  0
  2  4  1  0  0  0
  2  9  1  0  0  0
  4  5  1  0  0  0
  5  6  2  0  0  0
  5  7  1  0  0  0
  7  8  2  0  0  0
  7 15  1  0  0  0
  8  9  1  0  0  0
  8 10  1  0  0  0
 10 11  1  0  0  0
 10 31  1  0  0  0
 11 12  2  0  0  0
 11 21  1  0  0  0
 12 13  1  0  0  0
 12 15  1  0  0  0
 13 14  3  0  0  0
 15 16  1  0  0  0
 16 17  2  0  0  0
 16 20  1  0  0  0
 17 18  1  0  0  0
 18 19  2  0  0  0
 19 20  1  0  0  0
 21 22  1  0  0  0
 22 23  1  0  0  0
 23 24  2  0  0  0
 23 25  1  0  0  0
 25 26  1  0  0  0
 25 30  1  0  0  0
 26 27  1  0  0  0
 27 28  1  0  0  0
 28 29  1  0  0  0
 29 30  1  0  0  0
M  END
>  <CHROM.0>
-179.50792153,-71.16355687,110.71129960,66.05282012,-29.86288131,-178.19033635
-37.96541313,-163.79236810

>  <CHROM.1>
-37.01618337,-151.77860311,-163.86611020,-4.58611695,62.37451766,-20.51952764
20.78604533,-13.24934640,-2.42511436,-0.37361892,-2.67261061

>  <Name>
F1524-0428

>  <RI>
2.00482e+07

>  <Rbt.Current_Directory>
/home/adria/Escritorio/rDock_CMTR_LC/2pxcA_model/inputs_sah

>  <Rbt.Executable>
rbdock ($Id: //depot/dev/client3/rdock/2013.1/src/exe/rbdock.cxx#4 $)

>  <Rbt.Library>
libRbt.so (2013.1, Build901 2013/11/27)

>  <Rbt.Parameter_File>
/home/adria/Escritorio/rDock_2013.1_src/data/scripts/dock.prm

>  <Rbt.Receptor>
sah_rdock.prm

>  <SCORE>
-51.8134

>  <SCORE.INTER>
-16.0859

>  <SCORE.INTER.CONST>
1

>  <SCORE.INTER.POLAR>
-0.654987

>  <SCORE.INTER.REPUL>
0.0931188

>  <SCORE.INTER.ROT>
5

>  <SCORE.INTER.VDW>
-24.7245

>  <SCORE.INTER.norm>
-0.536196

>  <SCORE.INTRA>
-28.7289

>  <SCORE.INTRA.DIHEDRAL>
-1.56158

>  <SCORE.INTRA.DIHEDRAL.0>
6.4549

>  <SCORE.INTRA.POLAR>
0

>  <SCORE.INTRA.POLAR.0>
0

>  <SCORE.INTRA.REPUL>
0

>  <SCORE.INTRA.REPUL.0>
0

>  <SCORE.INTRA.VDW>
-27.9481

>  <SCORE.INTRA.VDW.0>
25.3375

>  <SCORE.INTRA.norm>
-0.957629

>  <SCORE.RESTR>
0

>  <SCORE.RESTR.CAVITY>
0

>  <SCORE.RESTR.norm>
0

>  <SCORE.SYSTEM>
-6.9986

>  <SCORE.SYSTEM.CONST>
0

>  <SCORE.SYSTEM.DIHEDRAL>
9.24828

>  <SCORE.SYSTEM.POLAR>
-4.53532

>  <SCORE.SYSTEM.REPUL>
0.0350925

>  <SCORE.SYSTEM.VDW>
3.62189

>  <SCORE.SYSTEM.norm>
-0.233287

>  <SCORE.heavy>
30

>  <SCORE.norm>
-1.72711

$$$$
F1524-0428
  rDOCK(R)          3D
libRbt.so/2013.1/901 2013/11/27
 31 34  0  0  0  0  0  0  0  0999 V2000
  -25.1043   19.0992   -9.0663 C   0  0  0  0  0  0
  -24.1097   20.0063   -9.8164 C   0  0  0  0  0  0
  -23.5675   21.0471   -8.8079 C   0  0  0  0  0  0
  -24.8906   20.7378  -10.9164 C   0  0  0  0  0  0
  -23.9620   21.4973  -11.7855 C   0  0  0  0  0  0
  -24.4372   22.4631  -12.5225 O   0  0  0  0  0  0
  -22.5489   21.1068  -11.9426 C   0  0  0  0  0  0
  -22.0824   19.9334  -11.4463 C   0  0  0  0  0  0
  -22.9556   19.1608  -10.4644 C   0  0  0  0  0  0
  -20.8246   19.4721  -11.8816 N   0  0  0  0  0  0
  -20.0416   20.0686  -12.9047 C   0  0  0  0  0  0
  -20.3993   21.2904  -13.3224 C   0  0  0  0  0  0
  -19.6671   21.9864  -14.3003 C   0  0  0  0  0  0
  -19.0678   22.5562  -15.1010 N   0  0  0  0  0  0
  -21.6596   21.9900  -12.7562 C   0  0  0  0  0  0
  -21.3795   23.3121  -12.0691 C   0  0  0  0  0  0
  -20.3082   23.8584  -11.3870 C   0  0  0  0  0  0
  -20.6483   25.2133  -11.1273 C   0  0  0  0  0  0
  -21.9269   25.3860  -11.5985 C   0  0  0  0  0  0
  -22.3866   24.2329  -12.1398 O   0  0  0  0  0  0
  -18.5398   19.4499  -13.6197 S   0  0  0  0  0  0
  -18.7265   19.5475  -15.5176 C   0  0  0  0  0  0
  -17.5305   19.7780  -16.6174 C   0  0  0  0  0  0
  -17.8645   20.4000  -17.6477 O   0  0  0  0  0  0
  -16.0978   19.1931  -16.5281 N   0  0  0  0  0  0
  -15.4949   18.0658  -17.3900 C   0  0  0  0  0  0
  -14.2438   18.5103  -18.3903 C   0  0  0  0  0  0
  -13.2681   19.3666  -17.7934 O   0  0  0  0  0  0
  -13.8976   20.5949  -17.3801 C   0  0  0  0  0  0
  -14.9632   20.2442  -16.2054 C   0  0  0  0  0  0
  -20.4607   18.6112  -11.4760 H   0  0  0  0  0  0
  1  2  1  0  0  0
  2  3  1  0  0  0
  2  4  1  0  0  0
  2  9  1  0  0  0
  4  5  1  0  0  0
  5  6  2  0  0  0
  5  7  1  0  0  0
  7  8  2  0  0  0
  7 15  1  0  0  0
  8  9  1  0  0  0
  8 10  1  0  0  0
 10 11  1  0  0  0
 10 31  1  0  0  0
 11 12  2  0  0  0
 11 21  1  0  0  0
 12 13  1  0  0  0
 12 15  1  0  0  0
 13 14  3  0  0  0
 15 16  1  0  0  0
 16 17  2  0  0  0
 16 20  1  0  0  0
 17 18  1  0  0  0
 18 19  2  0  0  0
 19 20  1  0  0  0
 21 22  1  0  0  0
 22 23  1  0  0  0
 23 24  2  0  0  0
 23 25  1  0  0  0
 25 26  1  0  0  0
 25 30  1  0  0  0
 26 27  1  0  0  0
 27 28  1  0  0  0
 28 29  1  0  0  0
 29 30  1  0  0  0
M  END
>  <CHROM.0>
40.89344513,-165.59855960,-164.48170275,66.21242540,-30.96700931,65.62995516
81.34224709,-159.09667244

>  <CHROM.1>
131.50215211,103.94400617,149.63237015,-148.27741239,108.42840132,-19.96983361
20.89265222,-13.47419810,2.94510844,0.66954471,-0.00110159

>  <Name>
F1524-0428

>  <RI>
2.00482e+07

>  <Rbt.Current_Directory>
/home/adria/Escritorio/rDock_CMTR_LC/2pxcA_model/inputs_sah

>  <Rbt.Executable>
rbdock ($Id: //depot/dev/client3/rdock/2013.1/src/exe/rbdock.cxx#4 $)

>  <Rbt.Library>
libRbt.so (2013.1, Build901 2013/11/27)

>  <Rbt.Parameter_File>
/home/adria/Escritorio/rDock_2013.1_src/data/scripts/dock.prm

>  <Rbt.Receptor>
sah_rdock.prm

>  <SCORE>
-54.0361

>  <SCORE.INTER>
-24.4086

>  <SCORE.INTER.CONST>
1

>  <SCORE.INTER.POLAR>
-1.77195

>  <SCORE.INTER.REPUL>
0

>  <SCORE.INTER.ROT>
5

>  <SCORE.INTER.VDW>
-28.784

>  <SCORE.INTER.norm>
-0.813622

>  <SCORE.INTRA>
-28.0241

>  <SCORE.INTRA.DIHEDRAL>
-0.752857

>  <SCORE.INTRA.DIHEDRAL.0>
6.4549

>  <SCORE.INTRA.POLAR>
0

>  <SCORE.INTRA.POLAR.0>
0

>  <SCORE.INTRA.REPUL>
0

>  <SCORE.INTRA.REPUL.0>
0

>  <SCORE.INTRA.VDW>
-27.6477

>  <SCORE.INTRA.VDW.0>
25.3375

>  <SCORE.INTRA.norm>
-0.934136

>  <SCORE.RESTR>
0

>  <SCORE.RESTR.CAVITY>
0

>  <SCORE.RESTR.norm>
0

>  <SCORE.SYSTEM>
-1.60334

>  <SCORE.SYSTEM.CONST>
0

>  <SCORE.SYSTEM.DIHEDRAL>
8.50174

>  <SCORE.SYSTEM.POLAR>
-3.52119

>  <SCORE.SYSTEM.REPUL>
0.120162

>  <SCORE.SYSTEM.VDW>
5.51703

>  <SCORE.SYSTEM.norm>
-0.0534446

>  <SCORE.heavy>
30

>  <SCORE.norm>
-1.8012

$$$$
F1524-0428
  rDOCK(R)          3D
libRbt.so/2013.1/901 2013/11/27
 31 34  0  0  0  0  0  0  0  0999 V2000
  -16.3886   18.4038  -16.8791 C   0  0  0  0  0  0
  -17.7412   18.5820  -16.1628 C   0  0  0  0  0  0
  -18.1006   17.2348  -15.4915 C   0  0  0  0  0  0
  -18.7928   18.9014  -17.2337 C   0  0  0  0  0  0
  -20.0830   19.2532  -16.5964 C   0  0  0  0  0  0
  -21.1749   19.1872  -17.3071 O   0  0  0  0  0  0
  -20.1511   19.8028  -15.2300 C   0  0  0  0  0  0
  -19.0304   20.1821  -14.5659 C   0  0  0  0  0  0
  -17.6765   19.7568  -15.1224 C   0  0  0  0  0  0
  -19.1700   20.9723  -13.4081 N   0  0  0  0  0  0
  -20.3892   21.5236  -12.9339 C   0  0  0  0  0  0
  -21.5256   21.0681  -13.4783 C   0  0  0  0  0  0
  -22.7876   21.5173  -13.0512 C   0  0  0  0  0  0
  -23.8209   21.8850  -12.7017 N   0  0  0  0  0  0
  -21.4997   20.0312  -14.6282 C   0  0  0  0  0  0
  -22.2130   18.7321  -14.3085 C   0  0  0  0  0  0
  -23.2228   17.9939  -14.8973 C   0  0  0  0  0  0
  -23.3137   16.7820  -14.1613 C   0  0  0  0  0  0
  -22.4107   16.8886  -13.1318 C   0  0  0  0  0  0
  -21.7652   18.0774  -13.1959 O   0  0  0  0  0  0
  -20.6138   22.6616  -11.5907 S   0  0  0  0  0  0
  -21.0466   24.3611  -12.3463 C   0  0  0  0  0  0
  -21.9433   25.5497  -11.6561 C   0  0  0  0  0  0
  -21.7133   26.7039  -12.0744 O   0  0  0  0  0  0
  -22.9323   25.3645  -10.4772 N   0  0  0  0  0  0
  -24.0201   24.2814  -10.3332 C   0  0  0  0  0  0
  -23.7995   23.1947   -9.0947 C   0  0  0  0  0  0
  -23.3877   23.7693   -7.8530 O   0  0  0  0  0  0
  -22.1195   24.4300   -8.0282 C   0  0  0  0  0  0
  -22.3372   25.6761   -9.0471 C   0  0  0  0  0  0
  -18.3283   21.2207  -12.8904 H   0  0  0  0  0  0
  1  2  1  0  0  0
  2  3  1  0  0  0
  2  4  1  0  0  0
  2  9  1  0  0  0
  4  5  1  0  0  0
  5  6  2  0  0  0
  5  7  1  0  0  0
  7  8  2  0  0  0
  7 15  1  0  0  0
  8  9  1  0  0  0
  8 10  1  0  0  0
 10 11  1  0  0  0
 10 31  1  0  0  0
 11 12  2  0  0  0
 11 21  1  0  0  0
 12 13  1  0  0  0
 12 15  1  0  0  0
 13 14  3  0  0  0
 15 16  1  0  0  0
 16 17  2  0  0  0
 16 20  1  0  0  0
 17 18  1  0  0  0
 18 19  2  0  0  0
 19 20  1  0  0  0
 21 22  1  0  0  0
 22 23  1  0  0  0
 23 24  2  0  0  0
 23 25  1  0  0  0
 25 26  1  0  0  0
 25 30  1  0  0  0
 26 27  1  0  0  0
 27 28  1  0  0  0
 28 29  1  0  0  0
 29 30  1  0  0  0
M  END
>  <CHROM.0>
-171.86372303,-169.40730636,-8.99335491,61.43596203,168.69481982,62.44817855
-156.35644131,-159.33322546

>  <CHROM.1>
107.32471099,-102.13761293,151.80304127,155.29124058,-47.63044246,-21.14746481
21.20559322,-13.11424082,-1.15208553,0.55074426,0.52821125

>  <Name>
F1524-0428

>  <RI>
2.00482e+07

>  <Rbt.Current_Directory>
/home/adria/Escritorio/rDock_CMTR_LC/2pxcA_model/inputs_sah

>  <Rbt.Executable>
rbdock ($Id: //depot/dev/client3/rdock/2013.1/src/exe/rbdock.cxx#4 $)

>  <Rbt.Library>
libRbt.so (2013.1, Build901 2013/11/27)

>  <Rbt.Parameter_File>
/home/adria/Escritorio/rDock_2013.1_src/data/scripts/dock.prm

>  <Rbt.Receptor>
sah_rdock.prm

>  <SCORE>
-48.4135

>  <SCORE.INTER>
-18.5258

>  <SCORE.INTER.CONST>
1

>  <SCORE.INTER.POLAR>
-2.98849

>  <SCORE.INTER.REPUL>
0.0182664

>  <SCORE.INTER.ROT>
5

>  <SCORE.INTER.VDW>
-18.8563

>  <SCORE.INTER.norm>
-0.617528

>  <SCORE.INTRA>
-28.9965

>  <SCORE.INTRA.DIHEDRAL>
0.988524

>  <SCORE.INTRA.DIHEDRAL.0>
6.4549

>  <SCORE.INTRA.POLAR>
0

>  <SCORE.INTRA.POLAR.0>
0

>  <SCORE.INTRA.REPUL>
0

>  <SCORE.INTRA.REPUL.0>
0

>  <SCORE.INTRA.VDW>
-29.4907

>  <SCORE.INTRA.VDW.0>
25.3375

>  <SCORE.INTRA.norm>
-0.966548

>  <SCORE.RESTR>
0

>  <SCORE.RESTR.CAVITY>
0

>  <SCORE.RESTR.norm>
0

>  <SCORE.SYSTEM>
-0.891181

>  <SCORE.SYSTEM.CONST>
0

>  <SCORE.SYSTEM.DIHEDRAL>
6.71318

>  <SCORE.SYSTEM.POLAR>
-4.25604

>  <SCORE.SYSTEM.VDW>
10.2228

>  <SCORE.SYSTEM.norm>
-0.029706

>  <SCORE.heavy>
30

>  <SCORE.norm>
-1.61378

$$$$
F1524-0428
  rDOCK(R)          3D
libRbt.so/2013.1/901 2013/11/27
 31 34  0  0  0  0  0  0  0  0999 V2000
  -20.4080   26.3146  -10.6539 C   0  0  0  0  0  0
  -21.3425   25.1121  -10.8890 C   0  0  0  0  0  0
  -22.2608   25.4552  -12.0862 C   0  0  0  0  0  0
  -22.2052   24.9445   -9.6310 C   0  0  0  0  0  0
  -23.0068   23.7019   -9.7210 C   0  0  0  0  0  0
  -24.0560   23.5728   -8.9568 O   0  0  0  0  0  0
  -22.5778   22.5578  -10.5461 C   0  0  0  0  0  0
  -21.3452   22.5193  -11.1118 C   0  0  0  0  0  0
  -20.5177   23.7992  -11.1397 C   0  0  0  0  0  0
  -20.8782   21.2927  -11.6234 N   0  0  0  0  0  0
  -21.5380   20.0430  -11.4869 C   0  0  0  0  0  0
  -22.8071   20.0588  -11.0574 C   0  0  0  0  0  0
  -23.5635   18.8808  -10.9277 C   0  0  0  0  0  0
  -24.1828   17.9163  -10.8214 N   0  0  0  0  0  0
  -23.4987   21.3865  -10.6607 C   0  0  0  0  0  0
  -24.7375   21.7078  -11.4734 C   0  0  0  0  0  0
  -26.0476   21.2664  -11.4853 C   0  0  0  0  0  0
  -26.7411   22.0965  -12.4067 C   0  0  0  0  0  0
  -25.8006   22.9373  -12.9500 C   0  0  0  0  0  0
  -24.5824   22.6865  -12.4142 O   0  0  0  0  0  0
  -20.9315   18.4411  -11.9512 S   0  0  0  0  0  0
  -19.7681   18.6806  -13.4464 C   0  0  0  0  0  0
  -19.1285   17.5068  -14.3984 C   0  0  0  0  0  0
  -19.0747   16.3706  -13.8826 O   0  0  0  0  0  0
  -18.4956   17.7243  -15.7965 N   0  0  0  0  0  0
  -19.1708   18.3330  -17.0418 C   0  0  0  0  0  0
  -18.5480   19.7822  -17.5667 C   0  0  0  0  0  0
  -17.1211   19.8537  -17.5894 O   0  0  0  0  0  0
  -16.6108   19.6656  -16.2553 C   0  0  0  0  0  0
  -16.9753   18.1542  -15.7851 C   0  0  0  0  0  0
  -19.9691   21.2776  -12.0831 H   0  0  0  0  0  0
  1  2  1  0  0  0
  2  3  1  0  0  0
  2  4  1  0  0  0
  2  9  1  0  0  0
  4  5  1  0  0  0
  5  6  2  0  0  0
  5  7  1  0  0  0
  7  8  2  0  0  0
  7 15  1  0  0  0
  8  9  1  0  0  0
  8 10  1  0  0  0
 10 11  1  0  0  0
 10 31  1  0  0  0
 11 12  2  0  0  0
 11 21  1  0  0  0
 12 13  1  0  0  0
 12 15  1  0  0  0
 13 14  3  0  0  0
 15 16  1  0  0  0
 16 17  2  0  0  0
 16 20  1  0  0  0
 17 18  1  0  0  0
 18 19  2  0  0  0
 19 20  1  0  0  0
 21 22  1  0  0  0
 22 23  1  0  0  0
 23 24  2  0  0  0
 23 25  1  0  0  0
 25 26  1  0  0  0
 25 30  1  0  0  0
 26 27  1  0  0  0
 27 28  1  0  0  0
 28 29  1  0  0  0
 29 30  1  0  0  0
M  END
>  <CHROM.0>
-176.39278584,67.11656235,73.32283854,64.24117543,167.82791998,-57.18745000
-156.82811201,-53.90695455

>  <CHROM.1>
-30.36831619,-150.38497898,-169.94369607,-22.08089315,-58.65300628,-21.49335252
20.97641150,-12.56567463,-2.37528656,-0.56589521,-2.85705048

>  <Name>
F1524-0428

>  <RI>
2.00482e+07

>  <Rbt.Current_Directory>
/home/adria/Escritorio/rDock_CMTR_LC/2pxcA_model/inputs_sah

>  <Rbt.Executable>
rbdock ($Id: //depot/dev/client3/rdock/2013.1/src/exe/rbdock.cxx#4 $)

>  <Rbt.Library>
libRbt.so (2013.1, Build901 2013/11/27)

>  <Rbt.Parameter_File>
/home/adria/Escritorio/rDock_2013.1_src/data/scripts/dock.prm

>  <Rbt.Receptor>
sah_rdock.prm

>  <SCORE>
-46.9083

>  <SCORE.INTER>
-17.3665

>  <SCORE.INTER.CONST>
1

>  <SCORE.INTER.POLAR>
-1.56921

>  <SCORE.INTER.REPUL>
0

>  <SCORE.INTER.ROT>
5

>  <SCORE.INTER.VDW>
-22.4312

>  <SCORE.INTER.norm>
-0.578883

>  <SCORE.INTRA>
-29.487

>  <SCORE.INTRA.DIHEDRAL>
-2.40242

>  <SCORE.INTRA.DIHEDRAL.0>
6.4549

>  <SCORE.INTRA.POLAR>
0

>  <SCORE.INTRA.POLAR.0>
0

>  <SCORE.INTRA.REPUL>
0

>  <SCORE.INTRA.REPUL.0>
0

>  <SCORE.INTRA.VDW>
-28.2858

>  <SCORE.INTRA.VDW.0>
25.3375

>  <SCORE.INTRA.norm>
-0.982899

>  <SCORE.RESTR>
0

>  <SCORE.RESTR.CAVITY>
0

>  <SCORE.RESTR.norm>
0

>  <SCORE.SYSTEM>
-0.0548305

>  <SCORE.SYSTEM.CONST>
0

>  <SCORE.SYSTEM.DIHEDRAL>
5.84859

>  <SCORE.SYSTEM.POLAR>
-3.34591

>  <SCORE.SYSTEM.REPUL>
0.00176468

>  <SCORE.SYSTEM.VDW>
8.38816

>  <SCORE.SYSTEM.norm>
-0.00182768

>  <SCORE.heavy>
30

>  <SCORE.norm>
-1.56361

$$$$
F1524-0428
  rDOCK(R)          3D
libRbt.so/2013.1/901 2013/11/27
 31 34  0  0  0  0  0  0  0  0999 V2000
  -25.3838   16.9267  -11.4769 C   0  0  0  0  0  0
  -24.8731   18.3745  -11.3437 C   0  0  0  0  0  0
  -24.5462   18.6240   -9.8519 C   0  0  0  0  0  0
  -26.0152   19.3081  -11.7665 C   0  0  0  0  0  0
  -25.5369   20.7089  -11.8257 C   0  0  0  0  0  0
  -26.4126   21.6752  -11.7925 O   0  0  0  0  0  0
  -24.1181   21.0371  -12.0566 C   0  0  0  0  0  0
  -23.2213   20.0812  -12.4070 C   0  0  0  0  0  0
  -23.6257   18.6182  -12.2663 C   0  0  0  0  0  0
  -21.9686   20.4860  -12.9082 N   0  0  0  0  0  0
  -21.5974   21.8240  -13.2041 C   0  0  0  0  0  0
  -22.3960   22.8003  -12.7523 C   0  0  0  0  0  0
  -22.0973   24.1593  -12.9544 C   0  0  0  0  0  0
  -21.8529   25.2719  -13.1199 N   0  0  0  0  0  0
  -23.7078   22.4728  -11.9972 C   0  0  0  0  0  0
  -23.7683   23.0292  -10.5882 C   0  0  0  0  0  0
  -24.1105   22.5270   -9.3464 C   0  0  0  0  0  0
  -23.7979   23.5433   -8.4039 C   0  0  0  0  0  0
  -23.3576   24.6212   -9.1325 C   0  0  0  0  0  0
  -23.3674   24.3287  -10.4548 O   0  0  0  0  0  0
  -20.1107   22.3867  -13.9933 S   0  0  0  0  0  0
  -19.4319   20.9377  -15.0356 C   0  0  0  0  0  0
  -19.1114   19.4137  -14.5182 C   0  0  0  0  0  0
  -19.7794   19.0319  -13.5344 O   0  0  0  0  0  0
  -17.9924   18.4917  -15.0660 N   0  0  0  0  0  0
  -18.1681   17.1713  -15.8425 C   0  0  0  0  0  0
  -17.6402   17.1833  -17.4187 C   0  0  0  0  0  0
  -16.3744   17.8126  -17.6271 O   0  0  0  0  0  0
  -16.4552   19.1946  -17.2280 C   0  0  0  0  0  0
  -16.7196   19.2416  -15.6261 C   0  0  0  0  0  0
  -21.2839   19.7655  -13.1320 H   0  0  0  0  0  0
  1  2  1  0  0  0
  2  3  1  0  0  0
  2  4  1  0  0  0
  2  9  1  0  0  0
  4  5  1  0  0  0
  5  6  2  0  0  0
  5  7  1  0  0  0
  7  8  2  0  0  0
  7 15  1  0  0  0
  8  9  1  0  0  0
  8 10  1  0  0  0
 10 11  1  0  0  0
 10 31  1  0  0  0
 11 12  2  0  0  0
 11 21  1  0  0  0
 12 13  1  0  0  0
 12 15  1  0  0  0
 13 14  3  0  0  0
 15 16  1  0  0  0
 16 17  2  0  0  0
 16 20  1  0  0  0
 17 18  1  0  0  0
 18 19  2  0  0  0
 19 20  1  0  0  0
 21 22  1  0  0  0
 22 23  1  0  0  0
 23 24  2  0  0  0
 23 25  1  0  0  0
 25 26  1  0  0  0
 25 30  1  0  0  0
 26 27  1  0  0  0
 27 28  1  0  0  0
 28 29  1  0  0  0
 29 30  1  0  0  0
M  END
>  <CHROM.0>
-178.97751407,67.33397765,-7.48024629,68.70329652,168.68869022,-54.51654683
-36.11371050,-157.24445169

>  <CHROM.1>
23.76312173,0.06941810,-53.64332422,26.54963400,-113.87699379,-21.78492344
20.71592537,-12.94739232,2.63094258,0.58039986,0.25517132

>  <Name>
F1524-0428

>  <RI>
2.00482e+07

>  <Rbt.Current_Directory>
/home/adria/Escritorio/rDock_CMTR_LC/2pxcA_model/inputs_sah

>  <Rbt.Executable>
rbdock ($Id: //depot/dev/client3/rdock/2013.1/src/exe/rbdock.cxx#4 $)

>  <Rbt.Library>
libRbt.so (2013.1, Build901 2013/11/27)

>  <Rbt.Parameter_File>
/home/adria/Escritorio/rDock_2013.1_src/data/scripts/dock.prm

>  <Rbt.Receptor>
sah_rdock.prm

>  <SCORE>
-43.8385

>  <SCORE.INTER>
-8.8538

>  <SCORE.INTER.CONST>
1

>  <SCORE.INTER.POLAR>
-0.570287

>  <SCORE.INTER.REPUL>
0

>  <SCORE.INTER.ROT>
5

>  <SCORE.INTER.VDW>
-17.3148

>  <SCORE.INTER.norm>
-0.295127

>  <SCORE.INTRA>
-33.541

>  <SCORE.INTRA.DIHEDRAL>
-3.82254

>  <SCORE.INTRA.DIHEDRAL.0>
6.4549

>  <SCORE.INTRA.POLAR>
-1

>  <SCORE.INTRA.POLAR.0>
0

>  <SCORE.INTRA.REPUL>
0

>  <SCORE.INTRA.REPUL.0>
0

>  <SCORE.INTRA.VDW>
-28.2297

>  <SCORE.INTRA.VDW.0>
25.3375

>  <SCORE.INTRA.norm>
-1.11803

>  <SCORE.RESTR>
0

>  <SCORE.RESTR.CAVITY>
0

>  <SCORE.RESTR.norm>
0

>  <SCORE.SYSTEM>
-1.44367

>  <SCORE.SYSTEM.CONST>
0

>  <SCORE.SYSTEM.DIHEDRAL>
6.73758

>  <SCORE.SYSTEM.POLAR>
-4.19891

>  <SCORE.SYSTEM.VDW>
9.46381

>  <SCORE.SYSTEM.norm>
-0.0481225

>  <SCORE.heavy>
30

>  <SCORE.norm>
-1.46128

$$$$
F1524-0428
  rDOCK(R)          3D
libRbt.so/2013.1/901 2013/11/27
 31 34  0  0  0  0  0  0  0  0999 V2000
  -22.5666   26.1437  -11.8695 C   0  0  0  0  0  0
  -22.5941   24.6278  -12.1450 C   0  0  0  0  0  0
  -23.6950   24.3598  -13.1989 C   0  0  0  0  0  0
  -22.9771   23.9268  -10.8348 C   0  0  0  0  0  0
  -22.8553   22.4580  -10.9846 C   0  0  0  0  0  0
  -23.4799   21.6850  -10.1396 O   0  0  0  0  0  0
  -21.9449   21.8499  -11.9721 C   0  0  0  0  0  0
  -21.0460   22.5999  -12.6580 C   0  0  0  0  0  0
  -21.1878   24.1172  -12.6230 C   0  0  0  0  0  0
  -20.0093   21.9421  -13.3485 N   0  0  0  0  0  0
  -19.7394   20.5495  -13.2894 C   0  0  0  0  0  0
  -20.6729   19.7629  -12.7371 C   0  0  0  0  0  0
  -20.5229   18.3667  -12.6669 C   0  0  0  0  0  0
  -20.4002   17.2236  -12.6094 N   0  0  0  0  0  0
  -21.9631   20.3637  -12.1264 C   0  0  0  0  0  0
  -23.2432   19.8691  -12.7707 C   0  0  0  0  0  0
  -24.5109   19.5497  -12.3209 C   0  0  0  0  0  0
  -25.2935   19.2939  -13.4789 C   0  0  0  0  0  0
  -24.4409   19.4000  -14.5505 C   0  0  0  0  0  0
  -23.1937   19.7157  -14.1276 O   0  0  0  0  0  0
  -18.3580   19.6828  -13.9895 S   0  0  0  0  0  0
  -18.2523   20.1681  -15.8333 C   0  0  0  0  0  0
  -17.4637   19.3598  -17.0240 C   0  0  0  0  0  0
  -16.7301   20.0619  -17.7513 O   0  0  0  0  0  0
  -17.6523   17.8620  -17.3755 N   0  0  0  0  0  0
  -16.5571   16.7811  -17.4717 C   0  0  0  0  0  0
  -16.6415   15.5633  -16.3433 C   0  0  0  0  0  0
  -17.9516   15.0404  -16.1156 O   0  0  0  0  0  0
  -18.8082   16.0907  -15.6268 C   0  0  0  0  0  0
  -18.9675   17.1992  -16.8033 C   0  0  0  0  0  0
  -19.3607   22.5068  -13.8949 H   0  0  0  0  0  0
  1  2  1  0  0  0
  2  3  1  0  0  0
  2  4  1  0  0  0
  2  9  1  0  0  0
  4  5  1  0  0  0
  5  6  2  0  0  0
  5  7  1  0  0  0
  7  8  2  0  0  0
  7 15  1  0  0  0
  8  9  1  0  0  0
  8 10  1  0  0  0
 10 11  1  0  0  0
 10 31  1  0  0  0
 11 12  2  0  0  0
 11 21  1  0  0  0
 12 13  1  0  0  0
 12 15  1  0  0  0
 13 14  3  0  0  0
 15 16  1  0  0  0
 16 17  2  0  0  0
 16 20  1  0  0  0
 17 18  1  0  0  0
 18 19  2  0  0  0
 19 20  1  0  0  0
 21 22  1  0  0  0
 22 23  1  0  0  0
 23 24  2  0  0  0
 23 25  1  0  0  0
 25 26  1  0  0  0
 25 30  1  0  0  0
 26 27  1  0  0  0
 27 28  1  0  0  0
 28 29  1  0  0  0
 29 30  1  0  0  0
M  END
>  <CHROM.0>
-59.47175645,-71.36951772,110.53525697,65.00459733,-30.04044045,-57.22118725
-36.46524926,-161.02175758

>  <CHROM.1>
-52.29390085,-84.53609253,-161.01697968,-131.69480657,-125.91722659,-20.64281139
20.14424838,-13.88540861,-2.33070959,-0.52661112,-2.92053690

>  <Name>
F1524-0428

>  <RI>
2.00482e+07

>  <Rbt.Current_Directory>
/home/adria/Escritorio/rDock_CMTR_LC/2pxcA_model/inputs_sah

>  <Rbt.Executable>
rbdock ($Id: //depot/dev/client3/rdock/2013.1/src/exe/rbdock.cxx#4 $)

>  <Rbt.Library>
libRbt.so (2013.1, Build901 2013/11/27)

>  <Rbt.Parameter_File>
/home/adria/Escritorio/rDock_2013.1_src/data/scripts/dock.prm

>  <Rbt.Receptor>
sah_rdock.prm

>  <SCORE>
-54.2809

>  <SCORE.INTER>
-18.1197

>  <SCORE.INTER.CONST>
1

>  <SCORE.INTER.POLAR>
-1.65353

>  <SCORE.INTER.REPUL>
0.00122938

>  <SCORE.INTER.ROT>
5

>  <SCORE.INTER.VDW>
-22.9038

>  <SCORE.INTER.norm>
-0.603989

>  <SCORE.INTRA>
-28.7429

>  <SCORE.INTRA.DIHEDRAL>
-0.0536514

>  <SCORE.INTRA.DIHEDRAL.0>
6.4549

>  <SCORE.INTRA.POLAR>
0

>  <SCORE.INTRA.POLAR.0>
0

>  <SCORE.INTRA.REPUL>
0

>  <SCORE.INTRA.REPUL.0>
0

>  <SCORE.INTRA.VDW>
-28.7161

>  <SCORE.INTRA.VDW.0>
25.3375

>  <SCORE.INTRA.norm>
-0.958097

>  <SCORE.RESTR>
0

>  <SCORE.RESTR.CAVITY>
0

>  <SCORE.RESTR.norm>
0

>  <SCORE.SYSTEM>
-7.41835

>  <SCORE.SYSTEM.CONST>
0

>  <SCORE.SYSTEM.DIHEDRAL>
9.44853

>  <SCORE.SYSTEM.POLAR>
-4.6162

>  <SCORE.SYSTEM.REPUL>
0.0354948

>  <SCORE.SYSTEM.VDW>
3.37498

>  <SCORE.SYSTEM.norm>
-0.247278

>  <SCORE.heavy>
30

>  <SCORE.norm>
-1.80936

$$$$
F1524-0428
  rDOCK(R)          3D
libRbt.so/2013.1/901 2013/11/27
 31 34  0  0  0  0  0  0  0  0999 V2000
  -20.6483   26.1113  -10.7080 C   0  0  0  0  0  0
  -21.5714   24.8923  -10.8987 C   0  0  0  0  0  0
  -22.4767   25.1729  -12.1219 C   0  0  0  0  0  0
  -22.4490   24.7766   -9.6452 C   0  0  0  0  0  0
  -23.2408   23.5253   -9.6875 C   0  0  0  0  0  0
  -24.2988   23.4238   -8.9312 O   0  0  0  0  0  0
  -22.7935   22.3474  -10.4533 C   0  0  0  0  0  0
  -21.5535   22.2920  -11.0013 C   0  0  0  0  0  0
  -20.7345   23.5754  -11.0781 C   0  0  0  0  0  0
  -21.0717   21.0466  -11.4496 N   0  0  0  0  0  0
  -21.7246   19.7997  -11.2637 C   0  0  0  0  0  0
  -22.9991   19.8259  -10.8511 C   0  0  0  0  0  0
  -23.7490   18.6495  -10.6764 C   0  0  0  0  0  0
  -24.3630   17.6864  -10.5333 N   0  0  0  0  0  0
  -23.7048   21.1653  -10.5250 C   0  0  0  0  0  0
  -24.9354   21.4395  -11.3670 C   0  0  0  0  0  0
  -25.3141   22.4201  -12.2649 C   0  0  0  0  0  0
  -26.5504   21.9962  -12.8223 C   0  0  0  0  0  0
  -26.8821   20.8287  -12.1792 C   0  0  0  0  0  0
  -25.9267   20.5034  -11.2762 O   0  0  0  0  0  0
  -21.1013   18.1826  -11.6457 S   0  0  0  0  0  0
  -21.2120   17.9588  -13.5390 C   0  0  0  0  0  0
  -20.0568   17.3458  -14.5304 C   0  0  0  0  0  0
  -19.1985   16.6303  -13.9726 O   0  0  0  0  0  0
  -19.8895   17.6793  -16.0348 N   0  0  0  0  0  0
  -19.6955   19.0727  -16.6657 C   0  0  0  0  0  0
  -18.2292   19.3348  -17.4038 C   0  0  0  0  0  0
  -17.7640   18.2597  -18.2220 O   0  0  0  0  0  0
  -17.5923   17.0809  -17.4118 C   0  0  0  0  0  0
  -19.0534   16.6275  -16.8661 C   0  0  0  0  0  0
  -20.1567   21.0170  -11.8968 H   0  0  0  0  0  0
  1  2  1  0  0  0
  2  3  1  0  0  0
  2  4  1  0  0  0
  2  9  1  0  0  0
  4  5  1  0  0  0
  5  6  2  0  0  0
  5  7  1  0  0  0
  7  8  2  0  0  0
  7 15  1  0  0  0
  8  9  1  0  0  0
  8 10  1  0  0  0
 10 11  1  0  0  0
 10 31  1  0  0  0
 11 12  2  0  0  0
 11 21  1  0  0  0
 12 13  1  0  0  0
 12 15  1  0  0  0
 13 14  3  0  0  0
 15 16  1  0  0  0
 16 17  2  0  0  0
 16 20  1  0  0  0
 17 18  1  0  0  0
 18 19  2  0  0  0
 19 20  1  0  0  0
 21 22  1  0  0  0
 22 23  1  0  0  0
 23 24  2  0  0  0
 23 25  1  0  0  0
 25 26  1  0  0  0
 25 30  1  0  0  0
 26 27  1  0  0  0
 27 28  1  0  0  0
 28 29  1  0  0  0
 29 30  1  0  0  0
M  END
>  <CHROM.0>
-178.57109329,-168.50554268,-8.53992196,-61.42093582,168.31522859,-177.61002496
-157.16276418,-163.77875453

>  <CHROM.1>
-75.95445512,13.62590971,134.83627067,21.16171783,56.85331335,-21.92168542
20.52896761,-12.56285897,-2.25318148,-0.60383588,-2.76720604

>  <Name>
F1524-0428

>  <RI>
2.00482e+07

>  <Rbt.Current_Directory>
/home/adria/Escritorio/rDock_CMTR_LC/2pxcA_model/inputs_sah

>  <Rbt.Executable>
rbdock ($Id: //depot/dev/client3/rdock/2013.1/src/exe/rbdock.cxx#4 $)

>  <Rbt.Library>
libRbt.so (2013.1, Build901 2013/11/27)

>  <Rbt.Parameter_File>
/home/adria/Escritorio/rDock_2013.1_src/data/scripts/dock.prm

>  <Rbt.Receptor>
sah_rdock.prm

>  <SCORE>
-42.8729

>  <SCORE.INTER>
-15.0418

>  <SCORE.INTER.CONST>
1

>  <SCORE.INTER.POLAR>
-0.824621

>  <SCORE.INTER.REPUL>
0

>  <SCORE.INTER.ROT>
5

>  <SCORE.INTER.VDW>
-22.6381

>  <SCORE.INTER.norm>
-0.501392

>  <SCORE.INTRA>
-26.9608

>  <SCORE.INTRA.DIHEDRAL>
1.87064

>  <SCORE.INTRA.DIHEDRAL.0>
6.4549

>  <SCORE.INTRA.POLAR>
0

>  <SCORE.INTRA.POLAR.0>
0

>  <SCORE.INTRA.REPUL>
0

>  <SCORE.INTRA.REPUL.0>
0

>  <SCORE.INTRA.VDW>
-27.8961

>  <SCORE.INTRA.VDW.0>
25.3375

>  <SCORE.INTRA.norm>
-0.898692

>  <SCORE.RESTR>
0

>  <SCORE.RESTR.CAVITY>
0

>  <SCORE.RESTR.norm>
0

>  <SCORE.SYSTEM>
-0.870333

>  <SCORE.SYSTEM.CONST>
0

>  <SCORE.SYSTEM.DIHEDRAL>
6.25814

>  <SCORE.SYSTEM.POLAR>
-4.22717

>  <SCORE.SYSTEM.VDW>
10.373

>  <SCORE.SYSTEM.norm>
-0.0290111

>  <SCORE.heavy>
30

>  <SCORE.norm>
-1.4291

$$$$
F1524-0428
  rDOCK(R)          3D
libRbt.so/2013.1/901 2013/11/27
 31 34  0  0  0  0  0  0  0  0999 V2000
  -20.6615   26.1496  -10.6351 C   0  0  0  0  0  0
  -21.3701   24.8548  -11.0778 C   0  0  0  0  0  0
  -22.3333   25.2158  -12.2338 C   0  0  0  0  0  0
  -22.1911   24.3464   -9.8852 C   0  0  0  0  0  0
  -22.7620   23.0132  -10.1871 C   0  0  0  0  0  0
  -23.7730   22.5867   -9.4816 O   0  0  0  0  0  0
  -22.1380   22.1033  -11.1652 C   0  0  0  0  0  0
  -20.9173   22.3676  -11.6951 C   0  0  0  0  0  0
  -20.3273   23.7601  -11.5033 C   0  0  0  0  0  0
  -20.2417   21.3354  -12.3751 N   0  0  0  0  0  0
  -20.6720   19.9845  -12.4503 C   0  0  0  0  0  0
  -21.9245   19.7131  -12.0594 C   0  0  0  0  0  0
  -22.4624   18.4161  -12.1331 C   0  0  0  0  0  0
  -22.9028   17.3543  -12.1933 N   0  0  0  0  0  0
  -22.8388   20.8226  -11.4838 C   0  0  0  0  0  0
  -24.1141   21.0468  -12.2724 C   0  0  0  0  0  0
  -25.3656   20.4605  -12.3057 C   0  0  0  0  0  0
  -26.1579   21.2579  -13.1749 C   0  0  0  0  0  0
  -25.3244   22.2303  -13.6712 C   0  0  0  0  0  0
  -24.0804   22.0894  -13.1550 O   0  0  0  0  0  0
  -19.7932   18.6041  -13.1372 S   0  0  0  0  0  0
  -19.2530   19.0904  -14.9031 C   0  0  0  0  0  0
  -18.1911   20.2693  -15.3219 C   0  0  0  0  0  0
  -18.3102   21.3431  -14.6952 O   0  0  0  0  0  0
  -17.1677   20.1906  -16.4833 N   0  0  0  0  0  0
  -15.6384   20.3647  -16.3927 C   0  0  0  0  0  0
  -14.7345   19.0154  -16.7473 C   0  0  0  0  0  0
  -15.1661   18.2839  -17.8964 O   0  0  0  0  0  0
  -16.5115   17.8131  -17.6867 C   0  0  0  0  0  0
  -17.4883   19.1070  -17.5876 C   0  0  0  0  0  0
  -19.3436   21.5498  -12.8059 H   0  0  0  0  0  0
  1  2  1  0  0  0
  2  3  1  0  0  0
  2  4  1  0  0  0
  2  9  1  0  0  0
  4  5  1  0  0  0
  5  6  2  0  0  0
  5  7  1  0  0  0
  7  8  2  0  0  0
  7 15  1  0  0  0
  8  9  1  0  0  0
  8 10  1  0  0  0
 10 11  1  0  0  0
 10 31  1  0  0  0
 11 12  2  0  0  0
 11 21  1  0  0  0
 12 13  1  0  0  0
 12 15  1  0  0  0
 13 14  3  0  0  0
 15 16  1  0  0  0
 16 17  2  0  0  0
 16 20  1  0  0  0
 17 18  1  0  0  0
 18 19  2  0  0  0
 19 20  1  0  0  0
 21 22  1  0  0  0
 22 23  1  0  0  0
 23 24  2  0  0  0
 23 25  1  0  0  0
 25 26  1  0  0  0
 25 30  1  0  0  0
 26 27  1  0  0  0
 27 28  1  0  0  0
 28 29  1  0  0  0
 29 30  1  0  0  0
M  END
>  <CHROM.0>
-58.23653867,-166.84699078,74.83807474,-144.87020818,168.50294795,-55.69157535
83.67635592,-161.83890989

>  <CHROM.1>
-52.29228532,-143.64355275,65.15127762,-42.79357762,-123.33641365,-20.70196009
21.01370581,-13.25322862,-2.49268723,-0.43086735,-2.68441428

>  <Name>
F1524-0428

>  <RI>
2.00482e+07

>  <Rbt.Current_Directory>
/home/adria/Escritorio/rDock_CMTR_LC/2pxcA_model/inputs_sah

>  <Rbt.Executable>
rbdock ($Id: //depot/dev/client3/rdock/2013.1/src/exe/rbdock.cxx#4 $)

>  <Rbt.Library>
libRbt.so (2013.1, Build901 2013/11/27)

>  <Rbt.Parameter_File>
/home/adria/Escritorio/rDock_2013.1_src/data/scripts/dock.prm

>  <Rbt.Receptor>
sah_rdock.prm

>  <SCORE>
-43.6132

>  <SCORE.INTER>
-13.6449

>  <SCORE.INTER.CONST>
1

>  <SCORE.INTER.POLAR>
-0.219345

>  <SCORE.INTER.REPUL>
0.000589345

>  <SCORE.INTER.ROT>
5

>  <SCORE.INTER.VDW>
-23.3021

>  <SCORE.INTER.norm>
-0.454829

>  <SCORE.INTRA>
-31.8824

>  <SCORE.INTRA.DIHEDRAL>
-1.41392

>  <SCORE.INTRA.DIHEDRAL.0>
6.4549

>  <SCORE.INTRA.POLAR>
-0.776492

>  <SCORE.INTRA.POLAR.0>
0

>  <SCORE.INTRA.REPUL>
0

>  <SCORE.INTRA.REPUL.0>
0

>  <SCORE.INTRA.VDW>
-28.5354

>  <SCORE.INTRA.VDW.0>
25.3375

>  <SCORE.INTRA.norm>
-1.06275

>  <SCORE.RESTR>
0

>  <SCORE.RESTR.CAVITY>
0

>  <SCORE.RESTR.norm>
0

>  <SCORE.SYSTEM>
1.9141

>  <SCORE.SYSTEM.CONST>
0

>  <SCORE.SYSTEM.DIHEDRAL>
8.26767

>  <SCORE.SYSTEM.POLAR>
-3.66372

>  <SCORE.SYSTEM.VDW>
10.2369

>  <SCORE.SYSTEM.norm>
0.0638034

>  <SCORE.heavy>
30

>  <SCORE.norm>
-1.45377

$$$$
F1524-0428
  rDOCK(R)          3D
libRbt.so/2013.1/901 2013/11/27
 31 34  0  0  0  0  0  0  0  0999 V2000
  -24.7163   23.8297   -9.7799 C   0  0  0  0  0  0
  -24.0874   22.5865  -10.4382 C   0  0  0  0  0  0
  -25.2098   21.8324  -11.1906 C   0  0  0  0  0  0
  -23.5513   21.6897   -9.3143 C   0  0  0  0  0  0
  -22.7820   20.5589   -9.8835 C   0  0  0  0  0  0
  -22.5728   19.5045   -9.1447 O   0  0  0  0  0  0
  -22.1341   20.6462  -11.2051 C   0  0  0  0  0  0
  -22.0576   21.8227  -11.8765 C   0  0  0  0  0  0
  -22.9095   22.9915  -11.3949 C   0  0  0  0  0  0
  -21.1755   21.9161  -12.9708 N   0  0  0  0  0  0
  -20.2501   20.9145  -13.3658 C   0  0  0  0  0  0
  -20.3853   19.6990  -12.8185 C   0  0  0  0  0  0
  -19.5480   18.6264  -13.1723 C   0  0  0  0  0  0
  -18.8625   17.7482  -13.4618 N   0  0  0  0  0  0
  -21.4675   19.4229  -11.7458 C   0  0  0  0  0  0
  -22.4654   18.3492  -12.1330 C   0  0  0  0  0  0
  -22.7409   17.6309  -13.2817 C   0  0  0  0  0  0
  -23.7138   16.6597  -12.9224 C   0  0  0  0  0  0
  -24.0226   16.8938  -11.6047 C   0  0  0  0  0  0
  -23.2956   17.9334  -11.1305 O   0  0  0  0  0  0
  -18.9975   21.0297  -14.6178 S   0  0  0  0  0  0
  -19.4006   19.7251  -15.9527 C   0  0  0  0  0  0
  -18.4142   19.2073  -17.1577 C   0  0  0  0  0  0
  -17.9009   20.1091  -17.8528 O   0  0  0  0  0  0
  -18.1792   17.7286  -17.5586 N   0  0  0  0  0  0
  -16.8290   17.0449  -17.8529 C   0  0  0  0  0  0
  -16.3747   15.8523  -16.7876 C   0  0  0  0  0  0
  -17.4142   14.9443  -16.4181 O   0  0  0  0  0  0
  -18.4754   15.6702  -15.7679 C   0  0  0  0  0  0
  -19.1320   16.6832  -16.8545 C   0  0  0  0  0  0
  -21.1511   22.7886  -13.4965 H   0  0  0  0  0  0
  1  2  1  0  0  0
  2  3  1  0  0  0
  2  4  1  0  0  0
  2  9  1  0  0  0
  4  5  1  0  0  0
  5  6  2  0  0  0
  5  7  1  0  0  0
  7  8  2  0  0  0
  7 15  1  0  0  0
  8  9  1  0  0  0
  8 10  1  0  0  0
 10 11  1  0  0  0
 10 31  1  0  0  0
 11 12  2  0  0  0
 11 21  1  0  0  0
 12 13  1  0  0  0
 12 15  1  0  0  0
 13 14  3  0  0  0
 15 16  1  0  0  0
 16 17  2  0  0  0
 16 20  1  0  0  0
 17 18  1  0  0  0
 18 19  2  0  0  0
 19 20  1  0  0  0
 21 22  1  0  0  0
 22 23  1  0  0  0
 23 24  2  0  0  0
 23 25  1  0  0  0
 25 26  1  0  0  0
 25 30  1  0  0  0
 26 27  1  0  0  0
 27 28  1  0  0  0
 28 29  1  0  0  0
 29 30  1  0  0  0
M  END
>  <CHROM.0>
-62.49279583,64.28275997,-162.41725119,-152.93076193,-29.17396371,174.98406990
83.76039512,-164.06441704

>  <CHROM.1>
-118.09692373,124.41923008,-166.67153688,-51.57633212,-134.55938738,-20.85768615
19.35883229,-13.41496510,-2.65914634,-0.80821647,-3.08747924

>  <Name>
F1524-0428

>  <RI>
2.00482e+07

>  <Rbt.Current_Directory>
/home/adria/Escritorio/rDock_CMTR_LC/2pxcA_model/inputs_sah

>  <Rbt.Executable>
rbdock ($Id: //depot/dev/client3/rdock/2013.1/src/exe/rbdock.cxx#4 $)

>  <Rbt.Library>
libRbt.so (2013.1, Build901 2013/11/27)

>  <Rbt.Parameter_File>
/home/adria/Escritorio/rDock_2013.1_src/data/scripts/dock.prm

>  <Rbt.Receptor>
sah_rdock.prm

>  <SCORE>
-51.2443

>  <SCORE.INTER>
-19.3817

>  <SCORE.INTER.CONST>
1

>  <SCORE.INTER.POLAR>
-2.26336

>  <SCORE.INTER.REPUL>
0.0378574

>  <SCORE.INTER.ROT>
5

>  <SCORE.INTER.VDW>
-22.2756

>  <SCORE.INTER.norm>
-0.646057

>  <SCORE.INTRA>
-28.5386

>  <SCORE.INTRA.DIHEDRAL>
-1.2699

>  <SCORE.INTRA.DIHEDRAL.0>
6.4549

>  <SCORE.INTRA.POLAR>
0

>  <SCORE.INTRA.POLAR.0>
0

>  <SCORE.INTRA.REPUL>
0

>  <SCORE.INTRA.REPUL.0>
0

>  <SCORE.INTRA.VDW>
-27.9036

>  <SCORE.INTRA.VDW.0>
25.3375

>  <SCORE.INTRA.norm>
-0.951286

>  <SCORE.RESTR>
0

>  <SCORE.RESTR.CAVITY>
0

>  <SCORE.RESTR.norm>
0

>  <SCORE.SYSTEM>
-3.32399

>  <SCORE.SYSTEM.CONST>
0

>  <SCORE.SYSTEM.DIHEDRAL>
9.28222

>  <SCORE.SYSTEM.POLAR>
-3.66716

>  <SCORE.SYSTEM.VDW>
4.50323

>  <SCORE.SYSTEM.norm>
-0.1108

>  <SCORE.heavy>
30

>  <SCORE.norm>
-1.70814

$$$$
F1524-0428
  rDOCK(R)          3D
libRbt.so/2013.1/901 2013/11/27
 31 34  0  0  0  0  0  0  0  0999 V2000
  -22.7792   26.1963  -11.8947 C   0  0  0  0  0  0
  -22.7536   24.6787  -12.1605 C   0  0  0  0  0  0
  -23.8782   24.3581  -13.1739 C   0  0  0  0  0  0
  -23.0619   23.9719  -10.8337 C   0  0  0  0  0  0
  -22.8849   22.5084  -10.9793 C   0  0  0  0  0  0
  -23.4474   21.7164  -10.1087 O   0  0  0  0  0  0
  -21.9846   21.9311  -11.9943 C   0  0  0  0  0  0
  -21.1416   22.7124  -12.7153 C   0  0  0  0  0  0
  -21.3447   24.2229  -12.6841 C   0  0  0  0  0  0
  -20.1031   22.0928  -13.4376 N   0  0  0  0  0  0
  -19.7741   20.7130  -13.3799 C   0  0  0  0  0  0
  -20.6548   19.8926  -12.7911 C   0  0  0  0  0  0
  -20.4449   18.5043  -12.7182 C   0  0  0  0  0  0
  -20.2731   17.3677  -12.6584 N   0  0  0  0  0  0
  -21.9468   20.4443  -12.1394 C   0  0  0  0  0  0
  -23.2269   19.8930  -12.7360 C   0  0  0  0  0  0
  -23.5880   19.3429  -13.9519 C   0  0  0  0  0  0
  -24.9249   18.8855  -13.8027 C   0  0  0  0  0  0
  -25.3172   19.2500  -12.5378 C   0  0  0  0  0  0
  -24.3071   19.8872  -11.8993 O   0  0  0  0  0  0
  -18.3831   19.8987  -14.1226 S   0  0  0  0  0  0
  -18.5379   20.1114  -16.0141 C   0  0  0  0  0  0
  -17.6151   19.3962  -17.1673 C   0  0  0  0  0  0
  -18.1912   19.1793  -18.2541 O   0  0  0  0  0  0
  -16.1679   18.8770  -16.9712 N   0  0  0  0  0  0
  -15.3995   17.8921  -17.8748 C   0  0  0  0  0  0
  -14.0727   18.5145  -18.6594 C   0  0  0  0  0  0
  -13.2284   19.3411  -17.8558 O   0  0  0  0  0  0
  -13.9782   20.4783  -17.3863 C   0  0  0  0  0  0
  -15.1470   19.9373  -16.3967 C   0  0  0  0  0  0
  -19.4976   22.6797  -14.0094 H   0  0  0  0  0  0
  1  2  1  0  0  0
  2  3  1  0  0  0
  2  4  1  0  0  0
  2  9  1  0  0  0
  4  5  1  0  0  0
  5  6  2  0  0  0
  5  7  1  0  0  0
  7  8  2  0  0  0
  7 15  1  0  0  0
  8  9  1  0  0  0
  8 10  1  0  0  0
 10 11  1  0  0  0
 10 31  1  0  0  0
 11 12  2  0  0  0
 11 21  1  0  0  0
 12 13  1  0  0  0
 12 15  1  0  0  0
 13 14  3  0  0  0
 15 16  1  0  0  0
 16 17  2  0  0  0
 16 20  1  0  0  0
 17 18  1  0  0  0
 18 19  2  0  0  0
 19 20  1  0  0  0
 21 22  1  0  0  0
 22 23  1  0  0  0
 23 24  2  0  0  0
 23 25  1  0  0  0
 25 26  1  0  0  0
 25 30  1  0  0  0
 26 27  1  0  0  0
 27 28  1  0  0  0
 28 29  1  0  0  0
 29 30  1  0  0  0
M  END
>  <CHROM.0>
-57.52303040,-75.52260230,-167.29458191,61.30052831,-29.84771044,-57.06391563
-36.23950910,-159.11755310

>  <CHROM.1>
-62.37133572,108.40361911,-171.95407205,149.57414909,162.77192810,-20.13683378
20.71246732,-14.03755402,-2.70113719,-0.51413457,-2.89157596

>  <Name>
F1524-0428

>  <RI>
2.00482e+07

>  <Rbt.Current_Directory>
/home/adria/Escritorio/rDock_CMTR_LC/2pxcA_model/inputs_sah

>  <Rbt.Executable>
rbdock ($Id: //depot/dev/client3/rdock/2013.1/src/exe/rbdock.cxx#4 $)

>  <Rbt.Library>
libRbt.so (2013.1, Build901 2013/11/27)

>  <Rbt.Parameter_File>
/home/adria/Escritorio/rDock_2013.1_src/data/scripts/dock.prm

>  <Rbt.Receptor>
sah_rdock.prm

>  <SCORE>
-59.0204

>  <SCORE.INTER>
-22.9333

>  <SCORE.INTER.CONST>
1

>  <SCORE.INTER.POLAR>
-1.71905

>  <SCORE.INTER.REPUL>
0.102572

>  <SCORE.INTER.ROT>
5

>  <SCORE.INTER.VDW>
-28.0014

>  <SCORE.INTER.norm>
-0.764442

>  <SCORE.INTRA>
-28.615

>  <SCORE.INTRA.DIHEDRAL>
-0.890319

>  <SCORE.INTRA.DIHEDRAL.0>
6.4549

>  <SCORE.INTRA.POLAR>
0

>  <SCORE.INTRA.POLAR.0>
0

>  <SCORE.INTRA.REPUL>
0

>  <SCORE.INTRA.REPUL.0>
0

>  <SCORE.INTRA.VDW>
-28.1698

>  <SCORE.INTRA.VDW.0>
25.3375

>  <SCORE.INTRA.norm>
-0.953834

>  <SCORE.RESTR>
0

>  <SCORE.RESTR.CAVITY>
0

>  <SCORE.RESTR.norm>
0

>  <SCORE.SYSTEM>
-7.47211

>  <SCORE.SYSTEM.CONST>
0

>  <SCORE.SYSTEM.DIHEDRAL>
7.02991

>  <SCORE.SYSTEM.POLAR>
-4.06225

>  <SCORE.SYSTEM.REPUL>
0.0427258

>  <SCORE.SYSTEM.VDW>
2.61095

>  <SCORE.SYSTEM.norm>
-0.24907

>  <SCORE.heavy>
30

>  <SCORE.norm>
-1.96735

$$$$
F1524-0428
  rDOCK(R)          3D
libRbt.so/2013.1/901 2013/11/27
 31 34  0  0  0  0  0  0  0  0999 V2000
  -21.5488   26.2213   -9.6791 C   0  0  0  0  0  0
  -21.9868   24.9730  -10.4693 C   0  0  0  0  0  0
  -22.9330   25.4393  -11.6014 C   0  0  0  0  0  0
  -22.7684   24.0680   -9.5076 C   0  0  0  0  0  0
  -23.0722   22.7714  -10.1567 C   0  0  0  0  0  0
  -24.0278   22.0308   -9.6669 O   0  0  0  0  0  0
  -22.2409   22.2355  -11.2501 C   0  0  0  0  0  0
  -21.0599   22.8128  -11.5860 C   0  0  0  0  0  0
  -20.7419   24.1954  -11.0283 C   0  0  0  0  0  0
  -20.1726   22.0966  -12.4130 N   0  0  0  0  0  0
  -20.3478   20.7518  -12.8328 C   0  0  0  0  0  0
  -21.5509   20.1957  -12.6363 C   0  0  0  0  0  0
  -21.8416   18.8846  -13.0528 C   0  0  0  0  0  0
  -22.0797   17.8112  -13.3937 N   0  0  0  0  0  0
  -22.6807   20.9721  -11.9161 C   0  0  0  0  0  0
  -23.9294   21.1692  -12.7530 C   0  0  0  0  0  0
  -24.7766   22.2283  -13.0211 C   0  0  0  0  0  0
  -25.6799   21.7751  -14.0198 C   0  0  0  0  0  0
  -25.3760   20.4542  -14.2424 C   0  0  0  0  0  0
  -24.3404   20.0729  -13.4575 O   0  0  0  0  0  0
  -19.1979   19.7368  -13.7256 S   0  0  0  0  0  0
  -18.3499   20.8438  -15.0302 C   0  0  0  0  0  0
  -17.3872   20.3543  -16.2658 C   0  0  0  0  0  0
  -17.8514   20.5393  -17.4105 O   0  0  0  0  0  0
  -16.0450   19.5936  -16.1169 N   0  0  0  0  0  0
  -15.7372   18.1489  -16.5586 C   0  0  0  0  0  0
  -14.6181   17.9879  -17.7773 C   0  0  0  0  0  0
  -13.4580   18.8116  -17.6449 O   0  0  0  0  0  0
  -13.8515   20.1976  -17.6516 C   0  0  0  0  0  0
  -14.7490   20.4729  -16.3261 C   0  0  0  0  0  0
  -19.3051   22.5503  -12.6953 H   0  0  0  0  0  0
  1  2  1  0  0  0
  2  3  1  0  0  0
  2  4  1  0  0  0
  2  9  1  0  0  0
  4  5  1  0  0  0
  5  6  2  0  0  0
  5  7  1  0  0  0
  7  8  2  0  0  0
  7 15  1  0  0  0
  8  9  1  0  0  0
  8 10  1  0  0  0
 10 11  1  0  0  0
 10 31  1  0  0  0
 11 12  2  0  0  0
 11 21  1  0  0  0
 12 13  1  0  0  0
 12 15  1  0  0  0
 13 14  3  0  0  0
 15 16  1  0  0  0
 16 17  2  0  0  0
 16 20  1  0  0  0
 17 18  1  0  0  0
 18 19  2  0  0  0
 19 20  1  0  0  0
 21 22  1  0  0  0
 22 23  1  0  0  0
 23 24  2  0  0  0
 23 25  1  0  0  0
 25 26  1  0  0  0
 25 30  1  0  0  0
 26 27  1  0  0  0
 27 28  1  0  0  0
 28 29  1  0  0  0
 29 30  1  0  0  0
M  END
>  <CHROM.0>
40.68510223,-72.77513508,-165.06681650,64.35839806,168.70808268,55.82319608
-37.90543711,-50.86951005

>  <CHROM.1>
-39.25789556,-1.96847611,-169.47344196,113.64528824,113.69118556,-20.33924618
21.19133772,-13.50540595,-2.49731756,-0.28077986,-2.49526027

>  <Name>
F1524-0428

>  <RI>
2.00482e+07

>  <Rbt.Current_Directory>
/home/adria/Escritorio/rDock_CMTR_LC/2pxcA_model/inputs_sah

>  <Rbt.Executable>
rbdock ($Id: //depot/dev/client3/rdock/2013.1/src/exe/rbdock.cxx#4 $)

>  <Rbt.Library>
libRbt.so (2013.1, Build901 2013/11/27)

>  <Rbt.Parameter_File>
/home/adria/Escritorio/rDock_2013.1_src/data/scripts/dock.prm

>  <Rbt.Receptor>
sah_rdock.prm

>  <SCORE>
-46.5861

>  <SCORE.INTER>
-21.2662

>  <SCORE.INTER.CONST>
1

>  <SCORE.INTER.POLAR>
-1.74251

>  <SCORE.INTER.REPUL>
0.0622534

>  <SCORE.INTER.ROT>
5

>  <SCORE.INTER.VDW>
-26.0529

>  <SCORE.INTER.norm>
-0.708872

>  <SCORE.INTRA>
-29.3113

>  <SCORE.INTRA.DIHEDRAL>
-2.56062

>  <SCORE.INTRA.DIHEDRAL.0>
6.4549

>  <SCORE.INTRA.POLAR>
0

>  <SCORE.INTRA.POLAR.0>
0

>  <SCORE.INTRA.REPUL>
0

>  <SCORE.INTRA.REPUL.0>
0

>  <SCORE.INTRA.VDW>
-28.031

>  <SCORE.INTRA.VDW.0>
25.3375

>  <SCORE.INTRA.norm>
-0.977044

>  <SCORE.RESTR>
0

>  <SCORE.RESTR.CAVITY>
0

>  <SCORE.RESTR.norm>
0

>  <SCORE.SYSTEM>
3.99135

>  <SCORE.SYSTEM.CONST>
0

>  <SCORE.SYSTEM.DIHEDRAL>
7.69732

>  <SCORE.SYSTEM.POLAR>
-3.43611

>  <SCORE.SYSTEM.REPUL>
0.168552

>  <SCORE.SYSTEM.VDW>
10.9827

>  <SCORE.SYSTEM.norm>
0.133045

>  <SCORE.heavy>
30

>  <SCORE.norm>
-1.55287

$$$$
F1524-0428
  rDOCK(R)          3D
libRbt.so/2013.1/901 2013/11/27
 31 34  0  0  0  0  0  0  0  0999 V2000
  -25.8976   22.5112   -8.0452 C   0  0  0  0  0  0
  -25.2380   21.5541   -9.0568 C   0  0  0  0  0  0
  -26.1810   21.4354  -10.2779 C   0  0  0  0  0  0
  -25.1191   20.1803   -8.3835 C   0  0  0  0  0  0
  -24.3384   19.2562   -9.2385 C   0  0  0  0  0  0
  -24.4429   17.9717   -9.0365 O   0  0  0  0  0  0
  -23.3494   19.7485  -10.2149 C   0  0  0  0  0  0
  -22.9779   21.0530  -10.2456 C   0  0  0  0  0  0
  -23.8101   22.0646   -9.4659 C   0  0  0  0  0  0
  -21.8261   21.4070  -10.9752 N   0  0  0  0  0  0
  -20.9308   20.4919  -11.5889 C   0  0  0  0  0  0
  -21.3285   19.2169  -11.6955 C   0  0  0  0  0  0
  -20.5358   18.2402  -12.3234 C   0  0  0  0  0  0
  -19.8867   17.4405  -12.8375 N   0  0  0  0  0  0
  -22.6839   18.7521  -11.1079 C   0  0  0  0  0  0
  -23.6385   18.1723  -12.1330 C   0  0  0  0  0  0
  -25.0105   18.1610  -12.3034 C   0  0  0  0  0  0
  -25.2513   17.5647  -13.5704 C   0  0  0  0  0  0
  -24.0239   17.1851  -14.0564 C   0  0  0  0  0  0
  -23.0484   17.5203  -13.1789 O   0  0  0  0  0  0
  -19.3794   20.8533  -12.3711 S   0  0  0  0  0  0
  -19.7324   21.1812  -14.2190 C   0  0  0  0  0  0
  -18.6275   21.4222  -15.4082 C   0  0  0  0  0  0
  -18.1566   22.5771  -15.4741 O   0  0  0  0  0  0
  -18.2318   20.3899  -16.4946 N   0  0  0  0  0  0
  -16.8943   19.6332  -16.6195 C   0  0  0  0  0  0
  -16.9730   17.9858  -16.4112 C   0  0  0  0  0  0
  -18.0643   17.3445  -17.0742 O   0  0  0  0  0  0
  -19.3071   17.8660  -16.5650 C   0  0  0  0  0  0
  -19.3982   19.4362  -16.9703 C   0  0  0  0  0  0
  -21.5740   22.3928  -11.0285 H   0  0  0  0  0  0
  1  2  1  0  0  0
  2  3  1  0  0  0
  2  4  1  0  0  0
  2  9  1  0  0  0
  4  5  1  0  0  0
  5  6  2  0  0  0
  5  7  1  0  0  0
  7  8  2  0  0  0
  7 15  1  0  0  0
  8  9  1  0  0  0
  8 10  1  0  0  0
 10 11  1  0  0  0
 10 31  1  0  0  0
 11 12  2  0  0  0
 11 21  1  0  0  0
 12 13  1  0  0  0
 12 15  1  0  0  0
 13 14  3  0  0  0
 15 16  1  0  0  0
 16 17  2  0  0  0
 16 20  1  0  0  0
 17 18  1  0  0  0
 18 19  2  0  0  0
 19 20  1  0  0  0
 21 22  1  0  0  0
 22 23  1  0  0  0
 23 24  2  0  0  0
 23 25  1  0  0  0
 25 26  1  0  0  0
 25 30  1  0  0  0
 26 27  1  0  0  0
 27 28  1  0  0  0
 28 29  1  0  0  0
 29 30  1  0  0  0
M  END
>  <CHROM.0>
-179.58108135,-166.35457119,-127.53422862,60.50195865,-31.78301449,61.61847305
-155.98602469,-165.42281618

>  <CHROM.1>
-90.60399934,-13.64590567,-173.85202063,-80.63239881,-109.72085863,-21.66531540
19.67995767,-12.62156674,-2.63675974,-0.62399152,-2.52741556

>  <Name>
F1524-0428

>  <RI>
2.00482e+07

>  <Rbt.Current_Directory>
/home/adria/Escritorio/rDock_CMTR_LC/2pxcA_model/inputs_sah

>  <Rbt.Executable>
rbdock ($Id: //depot/dev/client3/rdock/2013.1/src/exe/rbdock.cxx#4 $)

>  <Rbt.Library>
libRbt.so (2013.1, Build901 2013/11/27)

>  <Rbt.Parameter_File>
/home/adria/Escritorio/rDock_2013.1_src/data/scripts/dock.prm

>  <Rbt.Receptor>
sah_rdock.prm

>  <SCORE>
-48.4163

>  <SCORE.INTER>
-14.4341

>  <SCORE.INTER.CONST>
1

>  <SCORE.INTER.POLAR>
-1.19117

>  <SCORE.INTER.REPUL>
0.0170665

>  <SCORE.INTER.ROT>
5

>  <SCORE.INTER.VDW>
-20.8695

>  <SCORE.INTER.norm>
-0.481137

>  <SCORE.INTRA>
-28.3126

>  <SCORE.INTRA.DIHEDRAL>
-0.269167

>  <SCORE.INTRA.DIHEDRAL.0>
6.4549

>  <SCORE.INTRA.POLAR>
0

>  <SCORE.INTRA.POLAR.0>
0

>  <SCORE.INTRA.REPUL>
0

>  <SCORE.INTRA.REPUL.0>
0

>  <SCORE.INTRA.VDW>
-28.1781

>  <SCORE.INTRA.VDW.0>
25.3375

>  <SCORE.INTRA.norm>
-0.943755

>  <SCORE.RESTR>
0

>  <SCORE.RESTR.CAVITY>
0

>  <SCORE.RESTR.norm>
0

>  <SCORE.SYSTEM>
-5.66957

>  <SCORE.SYSTEM.CONST>
0

>  <SCORE.SYSTEM.DIHEDRAL>
9.16422

>  <SCORE.SYSTEM.POLAR>
-4.23989

>  <SCORE.SYSTEM.VDW>
4.16395

>  <SCORE.SYSTEM.norm>
-0.188986

>  <SCORE.heavy>
30

>  <SCORE.norm>
-1.61388

$$$$
F1524-0428
  rDOCK(R)          3D
libRbt.so/2013.1/901 2013/11/27
 31 34  0  0  0  0  0  0  0  0999 V2000
  -19.5591   25.9008  -10.2947 C   0  0  0  0  0  0
  -20.8646   25.1225  -10.5484 C   0  0  0  0  0  0
  -21.8047   26.0341  -11.3727 C   0  0  0  0  0  0
  -21.5097   24.8448   -9.1840 C   0  0  0  0  0  0
  -22.6807   23.9515   -9.3429 C   0  0  0  0  0  0
  -23.5692   23.9024   -8.3891 O   0  0  0  0  0  0
  -22.8002   23.0208  -10.4802 C   0  0  0  0  0  0
  -21.7636   22.8087  -11.3296 C   0  0  0  0  0  0
  -20.5760   23.7630  -11.2800 C   0  0  0  0  0  0
  -21.8225   21.7018  -12.1988 N   0  0  0  0  0  0
  -22.8262   20.6979  -12.1812 C   0  0  0  0  0  0
  -23.9269   20.9384  -11.4562 C   0  0  0  0  0  0
  -24.9977   20.0286  -11.4050 C   0  0  0  0  0  0
  -25.8744   19.2839  -11.3630 N   0  0  0  0  0  0
  -24.0625   22.2328  -10.6169 C   0  0  0  0  0  0
  -25.2428   23.1022  -11.0034 C   0  0  0  0  0  0
  -25.9281   23.3660  -12.1748 C   0  0  0  0  0  0
  -27.0449   24.1666  -11.8133 C   0  0  0  0  0  0
  -26.9297   24.4009  -10.4648 C   0  0  0  0  0  0
  -25.8261   23.7875   -9.9752 O   0  0  0  0  0  0
  -22.8719   19.1947  -13.1235 S   0  0  0  0  0  0
  -21.3687   19.2111  -14.3011 C   0  0  0  0  0  0
  -19.9815   18.3484  -14.1445 C   0  0  0  0  0  0
  -19.9347   17.5868  -13.1557 O   0  0  0  0  0  0
  -18.7214   18.4970  -15.0347 N   0  0  0  0  0  0
  -18.5639   18.0693  -16.5076 C   0  0  0  0  0  0
  -18.3346   19.3026  -17.5984 C   0  0  0  0  0  0
  -17.4079   20.3092  -17.1863 O   0  0  0  0  0  0
  -17.8854   20.9343  -15.9792 C   0  0  0  0  0  0
  -17.8861   19.8174  -14.7999 C   0  0  0  0  0  0
  -21.0607   21.5697  -12.8624 H   0  0  0  0  0  0
  1  2  1  0  0  0
  2  3  1  0  0  0
  2  4  1  0  0  0
  2  9  1  0  0  0
  4  5  1  0  0  0
  5  6  2  0  0  0
  5  7  1  0  0  0
  7  8  2  0  0  0
  7 15  1  0  0  0
  8  9  1  0  0  0
  8 10  1  0  0  0
 10 11  1  0  0  0
 10 31  1  0  0  0
 11 12  2  0  0  0
 11 21  1  0  0  0
 12 13  1  0  0  0
 12 15  1  0  0  0
 13 14  3  0  0  0
 15 16  1  0  0  0
 16 17  2  0  0  0
 16 20  1  0  0  0
 17 18  1  0  0  0
 18 19  2  0  0  0
 19 20  1  0  0  0
 21 22  1  0  0  0
 22 23  1  0  0  0
 23 24  2  0  0  0
 23 25  1  0  0  0
 25 26  1  0  0  0
 25 30  1  0  0  0
 26 27  1  0  0  0
 27 28  1  0  0  0
 28 29  1  0  0  0
 29 30  1  0  0  0
M  END
>  <CHROM.0>
39.50924322,67.01192984,-9.55622385,64.12562339,-30.90846976,-56.79737819
-38.18951741,-161.48916734

>  <CHROM.1>
-4.36104809,101.19413709,104.62124717,1.44628735,-70.95522657,-22.03563249
21.68773546,-12.36838984,-2.28776979,-0.35609180,-2.59295882

>  <Name>
F1524-0428

>  <RI>
2.00482e+07

>  <Rbt.Current_Directory>
/home/adria/Escritorio/rDock_CMTR_LC/2pxcA_model/inputs_sah

>  <Rbt.Executable>
rbdock ($Id: //depot/dev/client3/rdock/2013.1/src/exe/rbdock.cxx#4 $)

>  <Rbt.Library>
libRbt.so (2013.1, Build901 2013/11/27)

>  <Rbt.Parameter_File>
/home/adria/Escritorio/rDock_2013.1_src/data/scripts/dock.prm

>  <Rbt.Receptor>
sah_rdock.prm

>  <SCORE>
-47.3102

>  <SCORE.INTER>
-15.3298

>  <SCORE.INTER.CONST>
1

>  <SCORE.INTER.POLAR>
-1.67315

>  <SCORE.INTER.REPUL>
0

>  <SCORE.INTER.ROT>
5

>  <SCORE.INTER.VDW>
-20.0411

>  <SCORE.INTER.norm>
-0.510994

>  <SCORE.INTRA>
-29.337

>  <SCORE.INTRA.DIHEDRAL>
-2.05356

>  <SCORE.INTRA.DIHEDRAL.0>
6.4549

>  <SCORE.INTRA.POLAR>
0

>  <SCORE.INTRA.POLAR.0>
0

>  <SCORE.INTRA.REPUL>
0

>  <SCORE.INTRA.REPUL.0>
0

>  <SCORE.INTRA.VDW>
-28.3102

>  <SCORE.INTRA.VDW.0>
25.3375

>  <SCORE.INTRA.norm>
-0.9779

>  <SCORE.RESTR>
0

>  <SCORE.RESTR.CAVITY>
0

>  <SCORE.RESTR.norm>
0

>  <SCORE.SYSTEM>
-2.64338

>  <SCORE.SYSTEM.CONST>
0

>  <SCORE.SYSTEM.DIHEDRAL>
10.5734

>  <SCORE.SYSTEM.POLAR>
-4.18493

>  <SCORE.SYSTEM.REPUL>
0.124789

>  <SCORE.SYSTEM.VDW>
5.67474

>  <SCORE.SYSTEM.norm>
-0.0881125

>  <SCORE.heavy>
30

>  <SCORE.norm>
-1.57701

$$$$
F1524-0428
  rDOCK(R)          3D
libRbt.so/2013.1/901 2013/11/27
 31 34  0  0  0  0  0  0  0  0999 V2000
  -25.2702   19.7982   -8.3139 C   0  0  0  0  0  0
  -24.4546   20.6085   -9.3400 C   0  0  0  0  0  0
  -24.2255   22.0209   -8.7509 C   0  0  0  0  0  0
  -25.3038   20.7309  -10.6123 C   0  0  0  0  0  0
  -24.5117   21.3515  -11.6995 C   0  0  0  0  0  0
  -25.1397   21.8794  -12.7136 O   0  0  0  0  0  0
  -23.0399   21.2695  -11.7337 C   0  0  0  0  0  0
  -22.3582   20.4697  -10.8755 C   0  0  0  0  0  0
  -23.1010   19.8874   -9.6785 C   0  0  0  0  0  0
  -21.0033   20.1945  -11.1455 N   0  0  0  0  0  0
  -20.3064   20.5812  -12.3203 C   0  0  0  0  0  0
  -20.8981   21.4766  -13.1224 C   0  0  0  0  0  0
  -20.2758   21.9575  -14.2878 C   0  0  0  0  0  0
  -19.7663   22.3511  -15.2420 N   0  0  0  0  0  0
  -22.3171   22.0125  -12.8100 C   0  0  0  0  0  0
  -22.3842   23.5145  -12.6150 C   0  0  0  0  0  0
  -21.4912   24.4970  -12.2296 C   0  0  0  0  0  0
  -22.1621   25.7375  -12.4025 C   0  0  0  0  0  0
  -23.4380   25.4313  -12.8086 C   0  0  0  0  0  0
  -23.5888   24.0892  -12.9082 O   0  0  0  0  0  0
  -18.6605   20.1258  -12.8033 S   0  0  0  0  0  0
  -18.8106   18.7829  -14.1526 C   0  0  0  0  0  0
  -19.7525   17.4398  -14.1092 C   0  0  0  0  0  0
  -19.1421   16.3645  -13.9325 O   0  0  0  0  0  0
  -21.2772   17.3978  -14.3849 N   0  0  0  0  0  0
  -22.4038   17.9386  -13.4820 C   0  0  0  0  0  0
  -23.2743   19.2144  -14.0969 C   0  0  0  0  0  0
  -23.6456   19.0861  -15.4707 O   0  0  0  0  0  0
  -22.4580   18.9921  -16.2810 C   0  0  0  0  0  0
  -21.6921   17.6130  -15.8942 C   0  0  0  0  0  0
  -20.4849   19.6265  -10.4770 H   0  0  0  0  0  0
  1  2  1  0  0  0
  2  3  1  0  0  0
  2  4  1  0  0  0
  2  9  1  0  0  0
  4  5  1  0  0  0
  5  6  2  0  0  0
  5  7  1  0  0  0
  7  8  2  0  0  0
  7 15  1  0  0  0
  8  9  1  0  0  0
  8 10  1  0  0  0
 10 11  1  0  0  0
 10 31  1  0  0  0
 11 12  2  0  0  0
 11 21  1  0  0  0
 12 13  1  0  0  0
 12 15  1  0  0  0
 13 14  3  0  0  0
 15 16  1  0  0  0
 16 17  2  0  0  0
 16 20  1  0  0  0
 17 18  1  0  0  0
 18 19  2  0  0  0
 19 20  1  0  0  0
 21 22  1  0  0  0
 22 23  1  0  0  0
 23 24  2  0  0  0
 23 25  1  0  0  0
 25 26  1  0  0  0
 25 30  1  0  0  0
 26 27  1  0  0  0
 27 28  1  0  0  0
 28 29  1  0  0  0
 29 30  1  0  0  0
M  END
>  <CHROM.0>
-63.34944456,-168.35147685,-130.28856008,59.99315719,-31.90552811,-59.62479541
-36.16205007,-162.54593388

>  <CHROM.1>
103.11942824,107.50774704,-47.97596156,-106.87249445,-71.59284503,-22.08356651
20.68122954,-12.69423292,2.43963957,0.76914971,-0.00718511

>  <Name>
F1524-0428

>  <RI>
2.00482e+07

>  <Rbt.Current_Directory>
/home/adria/Escritorio/rDock_CMTR_LC/2pxcA_model/inputs_sah

>  <Rbt.Executable>
rbdock ($Id: //depot/dev/client3/rdock/2013.1/src/exe/rbdock.cxx#4 $)

>  <Rbt.Library>
libRbt.so (2013.1, Build901 2013/11/27)

>  <Rbt.Parameter_File>
/home/adria/Escritorio/rDock_2013.1_src/data/scripts/dock.prm

>  <Rbt.Receptor>
sah_rdock.prm

>  <SCORE>
-54.2683

>  <SCORE.INTER>
-17.1349

>  <SCORE.INTER.CONST>
1

>  <SCORE.INTER.POLAR>
-0.857971

>  <SCORE.INTER.REPUL>
0

>  <SCORE.INTER.ROT>
5

>  <SCORE.INTER.VDW>
-24.6178

>  <SCORE.INTER.norm>
-0.571162

>  <SCORE.INTRA>
-31.1967

>  <SCORE.INTRA.DIHEDRAL>
-0.18573

>  <SCORE.INTRA.DIHEDRAL.0>
6.4549

>  <SCORE.INTRA.POLAR>
0

>  <SCORE.INTRA.POLAR.0>
0

>  <SCORE.INTRA.REPUL>
0

>  <SCORE.INTRA.REPUL.0>
0

>  <SCORE.INTRA.VDW>
-31.1039

>  <SCORE.INTRA.VDW.0>
25.3375

>  <SCORE.INTRA.norm>
-1.03989

>  <SCORE.RESTR>
0

>  <SCORE.RESTR.CAVITY>
0

>  <SCORE.RESTR.norm>
0

>  <SCORE.SYSTEM>
-5.93675

>  <SCORE.SYSTEM.CONST>
0

>  <SCORE.SYSTEM.DIHEDRAL>
8.95232

>  <SCORE.SYSTEM.POLAR>
-4.21136

>  <SCORE.SYSTEM.VDW>
3.90573

>  <SCORE.SYSTEM.norm>
-0.197892

>  <SCORE.heavy>
30

>  <SCORE.norm>
-1.80894

$$$$
F1524-0428
  rDOCK(R)          3D
libRbt.so/2013.1/901 2013/11/27
 31 34  0  0  0  0  0  0  0  0999 V2000
  -27.1981   23.2655  -11.1061 C   0  0  0  0  0  0
  -25.6824   23.3115  -11.3802 C   0  0  0  0  0  0
  -24.9679   23.5849  -10.0352 C   0  0  0  0  0  0
  -25.4203   24.4865  -12.3317 C   0  0  0  0  0  0
  -24.0059   24.4838  -12.7721 C   0  0  0  0  0  0
  -23.4969   25.5804  -13.2622 O   0  0  0  0  0  0
  -23.2019   23.2481  -12.7984 C   0  0  0  0  0  0
  -23.7704   22.0327  -12.5972 C   0  0  0  0  0  0
  -25.1901   21.9765  -12.0452 C   0  0  0  0  0  0
  -23.0314   20.8812  -12.9321 N   0  0  0  0  0  0
  -21.7730   20.8770  -13.5894 C   0  0  0  0  0  0
  -21.1223   22.0444  -13.6843 C   0  0  0  0  0  0
  -19.8518   22.1420  -14.2785 C   0  0  0  0  0  0
  -18.8117   22.2220  -14.7651 N   0  0  0  0  0  0
  -21.7552   23.3557  -13.1568 C   0  0  0  0  0  0
  -20.9457   24.0443  -12.0757 C   0  0  0  0  0  0
  -19.8047   23.7396  -11.3569 C   0  0  0  0  0  0
  -19.4890   24.8983  -10.5975 C   0  0  0  0  0  0
  -20.4922   25.8040  -10.8426 C   0  0  0  0  0  0
  -21.3924   25.2828  -11.7098 O   0  0  0  0  0  0
  -20.8705   19.4731  -14.1929 S   0  0  0  0  0  0
  -21.8374   17.9077  -13.6816 C   0  0  0  0  0  0
  -23.3067   17.4296  -14.2343 C   0  0  0  0  0  0
  -23.9649   16.7130  -13.4513 O   0  0  0  0  0  0
  -23.8646   17.6918  -15.6564 N   0  0  0  0  0  0
  -24.9982   18.6599  -16.0501 C   0  0  0  0  0  0
  -24.5521   19.9472  -17.0025 C   0  0  0  0  0  0
  -23.6671   19.6254  -18.0773 O   0  0  0  0  0  0
  -22.4421   19.0865  -17.5439 C   0  0  0  0  0  0
  -22.7878   17.6780  -16.8125 C   0  0  0  0  0  0
  -23.4465   19.9704  -12.7418 H   0  0  0  0  0  0
  1  2  1  0  0  0
  2  3  1  0  0  0
  2  4  1  0  0  0
  2  9  1  0  0  0
  4  5  1  0  0  0
  5  6  2  0  0  0
  5  7  1  0  0  0
  7  8  2  0  0  0
  7 15  1  0  0  0
  8  9  1  0  0  0
  8 10  1  0  0  0
 10 11  1  0  0  0
 10 31  1  0  0  0
 11 12  2  0  0  0
 11 21  1  0  0  0
 12 13  1  0  0  0
 12 15  1  0  0  0
 13 14  3  0  0  0
 15 16  1  0  0  0
 16 17  2  0  0  0
 16 20  1  0  0  0
 17 18  1  0  0  0
 18 19  2  0  0  0
 19 20  1  0  0  0
 21 22  1  0  0  0
 22 23  1  0  0  0
 23 24  2  0  0  0
 23 25  1  0  0  0
 25 26  1  0  0  0
 25 30  1  0  0  0
 26 27  1  0  0  0
 27 28  1  0  0  0
 28 29  1  0  0  0
 29 30  1  0  0  0
M  END
>  <CHROM.0>
-59.30447533,-169.25117279,75.62667996,-63.21658048,168.24010617,-178.19184059
83.11603630,-161.96919327

>  <CHROM.1>
-4.28732799,126.73579820,67.55889053,-153.78138925,-108.84696189,-22.76186497
21.58144258,-13.53113172,1.48566669,0.13970402,0.61047822

>  <Name>
F1524-0428

>  <RI>
2.00482e+07

>  <Rbt.Current_Directory>
/home/adria/Escritorio/rDock_CMTR_LC/2pxcA_model/inputs_sah

>  <Rbt.Executable>
rbdock ($Id: //depot/dev/client3/rdock/2013.1/src/exe/rbdock.cxx#4 $)

>  <Rbt.Library>
libRbt.so (2013.1, Build901 2013/11/27)

>  <Rbt.Parameter_File>
/home/adria/Escritorio/rDock_2013.1_src/data/scripts/dock.prm

>  <Rbt.Receptor>
sah_rdock.prm

>  <SCORE>
-45.9852

>  <SCORE.INTER>
-13.3523

>  <SCORE.INTER.CONST>
1

>  <SCORE.INTER.POLAR>
-0.673848

>  <SCORE.INTER.REPUL>
0.0351583

>  <SCORE.INTER.ROT>
5

>  <SCORE.INTER.VDW>
-21.637

>  <SCORE.INTER.norm>
-0.445075

>  <SCORE.INTRA>
-31.294

>  <SCORE.INTRA.DIHEDRAL>
-4.39249

>  <SCORE.INTRA.DIHEDRAL.0>
6.4549

>  <SCORE.INTRA.POLAR>
0

>  <SCORE.INTRA.POLAR.0>
0

>  <SCORE.INTRA.REPUL>
0

>  <SCORE.INTRA.REPUL.0>
0

>  <SCORE.INTRA.VDW>
-29.0977

>  <SCORE.INTRA.VDW.0>
25.3375

>  <SCORE.INTRA.norm>
-1.04313

>  <SCORE.RESTR>
0.0249322

>  <SCORE.RESTR.CAVITY>
0.0249322

>  <SCORE.RESTR.norm>
0.000831075

>  <SCORE.SYSTEM>
-1.36393

>  <SCORE.SYSTEM.CONST>
0

>  <SCORE.SYSTEM.DIHEDRAL>
3.47279

>  <SCORE.SYSTEM.POLAR>
-3.65171

>  <SCORE.SYSTEM.VDW>
9.31549

>  <SCORE.SYSTEM.norm>
-0.0454643

>  <SCORE.heavy>
30

>  <SCORE.norm>
-1.53284

$$$$
F1524-0428
  rDOCK(R)          3D
libRbt.so/2013.1/901 2013/11/27
 31 34  0  0  0  0  0  0  0  0999 V2000
  -20.8246   26.1634  -10.7098 C   0  0  0  0  0  0
  -21.6005   24.8690  -11.0217 C   0  0  0  0  0  0
  -22.6411   25.1958  -12.1194 C   0  0  0  0  0  0
  -22.3391   24.4534   -9.7425 C   0  0  0  0  0  0
  -22.9678   23.1241   -9.9225 C   0  0  0  0  0  0
  -23.9316   22.7693   -9.1183 O   0  0  0  0  0  0
  -22.4472   22.1425  -10.8917 C   0  0  0  0  0  0
  -21.2650   22.3385  -11.5279 C   0  0  0  0  0  0
  -20.6243   23.7201  -11.4622 C   0  0  0  0  0  0
  -20.6730   21.2495  -12.1972 N   0  0  0  0  0  0
  -21.1443   19.9108  -12.1614 C   0  0  0  0  0  0
  -22.3692   19.7009  -11.6607 C   0  0  0  0  0  0
  -22.9462   18.4195  -11.6182 C   0  0  0  0  0  0
  -23.4187   17.3704  -11.5834 N   0  0  0  0  0  0
  -23.2053   20.8687  -11.0815 C   0  0  0  0  0  0
  -24.5318   21.0892  -11.7815 C   0  0  0  0  0  0
  -25.7221   21.7140  -11.4590 C   0  0  0  0  0  0
  -26.5182   21.6900  -12.6356 C   0  0  0  0  0  0
  -25.7977   20.9911  -13.5732 C   0  0  0  0  0  0
  -24.6104   20.5976  -13.0541 O   0  0  0  0  0  0
  -20.3597   18.4676  -12.8331 S   0  0  0  0  0  0
  -18.6756   19.0124  -13.5496 C   0  0  0  0  0  0
  -18.3932   20.2760  -14.5579 C   0  0  0  0  0  0
  -18.8809   21.3674  -14.1964 O   0  0  0  0  0  0
  -17.6947   20.1896  -15.9389 N   0  0  0  0  0  0
  -16.1807   20.0958  -16.2144 C   0  0  0  0  0  0
  -15.6577   18.6776  -16.9062 C   0  0  0  0  0  0
  -16.4712   18.1910  -17.9754 O   0  0  0  0  0  0
  -17.7987   17.9236  -17.4835 C   0  0  0  0  0  0
  -18.4598   19.3346  -17.0252 C   0  0  0  0  0  0
  -19.8059   21.4114  -12.7071 H   0  0  0  0  0  0
  1  2  1  0  0  0
  2  3  1  0  0  0
  2  4  1  0  0  0
  2  9  1  0  0  0
  4  5  1  0  0  0
  5  6  2  0  0  0
  5  7  1  0  0  0
  7  8  2  0  0  0
  7 15  1  0  0  0
  8  9  1  0  0  0
  8 10  1  0  0  0
 10 11  1  0  0  0
 10 31  1  0  0  0
 11 12  2  0  0  0
 11 21  1  0  0  0
 12 13  1  0  0  0
 12 15  1  0  0  0
 13 14  3  0  0  0
 15 16  1  0  0  0
 16 17  2  0  0  0
 16 20  1  0  0  0
 17 18  1  0  0  0
 18 19  2  0  0  0
 19 20  1  0  0  0
 21 22  1  0  0  0
 22 23  1  0  0  0
 23 24  2  0  0  0
 23 25  1  0  0  0
 25 26  1  0  0  0
 25 30  1  0  0  0
 26 27  1  0  0  0
 27 28  1  0  0  0
 28 29  1  0  0  0
 29 30  1  0  0  0
M  END
>  <CHROM.0>
-59.07598637,-168.94937877,-167.66875259,63.02803805,-29.90706895,-178.83326241
81.67284352,-164.99971664

>  <CHROM.1>
3.21873686,-67.64626639,-49.16533797,50.27500421,-79.29449276,-21.15910443
20.95771394,-12.92799034,-2.46236930,-0.45715892,-2.68344071

>  <Name>
F1524-0428

>  <RI>
2.00482e+07

>  <Rbt.Current_Directory>
/home/adria/Escritorio/rDock_CMTR_LC/2pxcA_model/inputs_sah

>  <Rbt.Executable>
rbdock ($Id: //depot/dev/client3/rdock/2013.1/src/exe/rbdock.cxx#4 $)

>  <Rbt.Library>
libRbt.so (2013.1, Build901 2013/11/27)

>  <Rbt.Parameter_File>
/home/adria/Escritorio/rDock_2013.1_src/data/scripts/dock.prm

>  <Rbt.Receptor>
sah_rdock.prm

>  <SCORE>
-51.1466

>  <SCORE.INTER>
-12.0887

>  <SCORE.INTER.CONST>
1

>  <SCORE.INTER.POLAR>
0

>  <SCORE.INTER.REPUL>
0

>  <SCORE.INTER.ROT>
5

>  <SCORE.INTER.VDW>
-22.4887

>  <SCORE.INTER.norm>
-0.402957

>  <SCORE.INTRA>
-32.8743

>  <SCORE.INTRA.DIHEDRAL>
-2.48794

>  <SCORE.INTRA.DIHEDRAL.0>
6.4549

>  <SCORE.INTRA.POLAR>
-0.8853

>  <SCORE.INTRA.POLAR.0>
0

>  <SCORE.INTRA.REPUL>
0

>  <SCORE.INTRA.REPUL.0>
0

>  <SCORE.INTRA.VDW>
-28.6203

>  <SCORE.INTRA.VDW.0>
25.3375

>  <SCORE.INTRA.norm>
-1.09581

>  <SCORE.RESTR>
0

>  <SCORE.RESTR.CAVITY>
0

>  <SCORE.RESTR.norm>
0

>  <SCORE.SYSTEM>
-6.18362

>  <SCORE.SYSTEM.CONST>
0

>  <SCORE.SYSTEM.DIHEDRAL>
5.97998

>  <SCORE.SYSTEM.POLAR>
-3.59144

>  <SCORE.SYSTEM.VDW>
3.03731

>  <SCORE.SYSTEM.norm>
-0.206121

>  <SCORE.heavy>
30

>  <SCORE.norm>
-1.70489

$$$$
