F3222-2124
  rDOCK(R)          3D
libRbt.so/2013.1/901 2013/11/27
 30 32  0  0  0  0  0  0  0  0999 V2000
  -14.6484   17.4191  -18.4287 C   0  0  0  0  0  0
  -15.0043   18.3995  -17.3141 C   0  0  0  0  0  0
  -16.3203   18.0910  -16.8425 O   0  0  0  0  0  0
  -16.8601   18.9178  -15.8872 C   0  0  0  0  0  0
  -16.2421   19.8487  -15.3925 O   0  0  0  0  0  0
  -18.1641   18.3858  -15.4793 C   0  0  0  0  0  0
  -19.1609   18.8698  -14.6011 C   0  0  0  0  0  0
  -19.9712   17.6754  -14.1666 C   0  0  0  0  0  0
  -19.7287   16.5638  -14.9247 C   0  0  0  0  0  0
  -18.5571   16.8064  -16.0845 S   0  0  0  0  0  0
  -20.9443   17.4274  -13.1058 C   0  0  0  0  0  0
  -22.6025   16.8590  -13.2683 C   0  0  0  0  0  0
  -23.9570   17.3765  -12.1851 C   0  0  0  0  0  0
  -23.7169   18.6334  -10.9203 C   0  0  0  0  0  0
  -24.8354   19.0457  -10.0516 C   0  0  0  0  0  0
  -22.0399   19.3079  -10.6847 C   0  0  0  0  0  0
  -20.6031   18.4995  -11.8645 C   0  0  0  0  0  0
  -19.0560   20.6034  -14.0108 S   0  0  0  0  0  0
  -18.3961   20.4404  -12.7319 O   0  0  0  0  0  0
  -18.3792   21.2340  -15.1324 O   0  0  0  0  0  0
  -20.3678   21.7501  -13.7450 N   0  0  0  0  0  0
  -21.0776   21.8792  -12.4782 C   0  0  0  0  0  0
  -20.2494   23.1071  -11.5483 C   0  0  0  0  0  0
  -21.2196   24.3636  -10.7940 C   0  0  0  0  0  0
  -20.4794   25.2301  -10.0000 O   0  0  0  0  0  0
  -19.1202   25.5110   -9.9607 C   0  0  0  0  0  0
  -23.2580   24.3276  -11.0164 C   0  0  0  0  0  0
  -23.9856   22.8932  -11.8536 C   0  0  0  0  0  0
  -22.8690   21.6932  -12.5526 C   0  0  0  0  0  0
  -21.0083   21.5933  -14.5261 H   0  0  0  0  0  0
  1  2  1  0  0  0
  2  3  1  0  0  0
  3  4  1  0  0  0
  4  5  2  0  0  0
  4  6  1  0  0  0
  6  7  2  0  0  0
  6 10  1  0  0  0
  7  8  1  0  0  0
  7 18  1  0  0  0
  8  9  2  0  0  0
  8 11  1  0  0  0
  9 10  1  0  0  0
 11 12  2  0  0  0
 11 17  1  0  0  0
 12 13  1  0  0  0
 13 14  2  0  0  0
 14 15  1  0  0  0
 14 16  1  0  0  0
 16 17  2  0  0  0
 18 19  2  0  0  0
 18 20  2  0  0  0
 18 21  1  0  0  0
 21 22  1  0  0  0
 21 30  1  0  0  0
 22 23  2  0  0  0
 22 29  1  0  0  0
 23 24  1  0  0  0
 24 25  1  0  0  0
 24 27  2  0  0  0
 25 26  1  0  0  0
 27 28  1  0  0  0
 28 29  2  0  0  0
M  END
>  <CHROM.0>
-176.57263511,-71.88185725,-164.21865754,65.16817705,168.14948778,61.66316077
-156.91245046,-160.73267835

>  <CHROM.1>
-176.10273586,-3.52946803,-175.95741531,-96.04558232,122.74336875,89.41131457
91.63717919,19.36998426,-19.86147094,19.97636167,-13.52311107,-0.79571317
0.54708925,0.40896789

>  <Name>
F3222-2124

>  <RI>
4.33053e+07

>  <Rbt.Current_Directory>
/home/adria/Escritorio/rDock_CMTR_LC/2pxcA_model/inputs_sah

>  <Rbt.Executable>
rbdock ($Id: //depot/dev/client3/rdock/2013.1/src/exe/rbdock.cxx#4 $)

>  <Rbt.Library>
libRbt.so (2013.1, Build901 2013/11/27)

>  <Rbt.Parameter_File>
/home/adria/Escritorio/rDock_2013.1_src/data/scripts/dock.prm

>  <Rbt.Receptor>
sah_rdock.prm

>  <SCORE>
-314.157

>  <SCORE.INTER>
-13.3713

>  <SCORE.INTER.CONST>
1

>  <SCORE.INTER.POLAR>
0

>  <SCORE.INTER.REPUL>
0

>  <SCORE.INTER.ROT>
8

>  <SCORE.INTER.VDW>
-26.7713

>  <SCORE.INTER.norm>
-0.461078

>  <SCORE.INTRA>
-298.519

>  <SCORE.INTRA.DIHEDRAL>
-15.5602

>  <SCORE.INTRA.DIHEDRAL.0>
24.2664

>  <SCORE.INTRA.POLAR>
0

>  <SCORE.INTRA.POLAR.0>
0

>  <SCORE.INTRA.REPUL>
0

>  <SCORE.INTRA.REPUL.0>
0

>  <SCORE.INTRA.VDW>
-290.739

>  <SCORE.INTRA.VDW.0>
288.566

>  <SCORE.INTRA.norm>
-10.2938

>  <SCORE.RESTR>
0

>  <SCORE.RESTR.CAVITY>
0

>  <SCORE.RESTR.norm>
0

>  <SCORE.SYSTEM>
-2.26655

>  <SCORE.SYSTEM.CONST>
0

>  <SCORE.SYSTEM.DIHEDRAL>
3.80716

>  <SCORE.SYSTEM.POLAR>
-3.90729

>  <SCORE.SYSTEM.REPUL>
0.0364779

>  <SCORE.SYSTEM.VDW>
8.93226

>  <SCORE.SYSTEM.norm>
-0.078157

>  <SCORE.heavy>
29

>  <SCORE.norm>
-10.833

$$$$
F3222-2124
  rDOCK(R)          3D
libRbt.so/2013.1/901 2013/11/27
 30 32  0  0  0  0  0  0  0  0999 V2000
  -24.5176   15.8876  -15.3507 C   0  0  0  0  0  0
  -23.9804   16.7647  -16.4788 C   0  0  0  0  0  0
  -23.7842   18.0881  -15.9694 O   0  0  0  0  0  0
  -22.6902   18.3013  -15.1661 C   0  0  0  0  0  0
  -21.7661   17.5061  -15.0823 O   0  0  0  0  0  0
  -22.9237   19.4981  -14.3520 C   0  0  0  0  0  0
  -22.0483   20.3816  -13.6794 C   0  0  0  0  0  0
  -22.8560   21.0486  -12.5955 C   0  0  0  0  0  0
  -24.2018   20.8560  -12.7400 C   0  0  0  0  0  0
  -24.5874   19.8834  -14.0371 S   0  0  0  0  0  0
  -22.5283   21.8394  -11.4119 C   0  0  0  0  0  0
  -23.6341   22.5148  -10.2202 C   0  0  0  0  0  0
  -23.3634   24.0906   -9.3720 C   0  0  0  0  0  0
  -21.9766   25.1558   -9.7950 C   0  0  0  0  0  0
  -21.7770   26.4393   -9.0959 C   0  0  0  0  0  0
  -20.7825   24.5616  -11.0374 C   0  0  0  0  0  0
  -21.1379   22.7038  -11.7671 C   0  0  0  0  0  0
  -20.2515   20.2919  -14.0374 S   0  0  0  0  0  0
  -19.8979   21.6936  -14.1263 O   0  0  0  0  0  0
  -19.7926   19.4682  -12.9309 O   0  0  0  0  0  0
  -19.4427   19.4941  -15.3850 N   0  0  0  0  0  0
  -18.1343   18.8606  -15.2753 C   0  0  0  0  0  0
  -18.3619   17.1550  -15.5881 C   0  0  0  0  0  0
  -17.2662   16.3711  -16.7168 C   0  0  0  0  0  0
  -17.4683   15.0009  -16.8203 O   0  0  0  0  0  0
  -16.5948   13.9586  -17.1003 C   0  0  0  0  0  0
  -15.7737   17.4700  -17.5947 C   0  0  0  0  0  0
  -15.5499   19.1799  -17.0343 C   0  0  0  0  0  0
  -16.7347   19.8275  -15.8714 C   0  0  0  0  0  0
  -19.4720   20.1785  -16.1437 H   0  0  0  0  0  0
  1  2  1  0  0  0
  2  3  1  0  0  0
  3  4  1  0  0  0
  4  5  2  0  0  0
  4  6  1  0  0  0
  6  7  2  0  0  0
  6 10  1  0  0  0
  7  8  1  0  0  0
  7 18  1  0  0  0
  8  9  2  0  0  0
  8 11  1  0  0  0
  9 10  1  0  0  0
 11 12  2  0  0  0
 11 17  1  0  0  0
 12 13  1  0  0  0
 13 14  2  0  0  0
 14 15  1  0  0  0
 14 16  1  0  0  0
 16 17  2  0  0  0
 18 19  2  0  0  0
 18 20  2  0  0  0
 18 21  1  0  0  0
 21 22  1  0  0  0
 21 30  1  0  0  0
 22 23  2  0  0  0
 22 29  1  0  0  0
 23 24  1  0  0  0
 24 25  1  0  0  0
 24 27  2  0  0  0
 25 26  1  0  0  0
 27 28  1  0  0  0
 28 29  2  0  0  0
M  END
>  <CHROM.0>
-179.57487956,-169.99000489,-167.51247112,66.38608875,-30.46611255,65.44229874
-156.74048596,-163.71407594

>  <CHROM.1>
75.67004946,14.40902752,-158.49894167,137.12551848,-178.38842578,-146.19700322
116.56095831,-149.75590238,-20.94693408,19.74953939,-14.07527505,1.08499914
-0.15246331,-2.52341005

>  <Name>
F3222-2124

>  <RI>
4.33053e+07

>  <Rbt.Current_Directory>
/home/adria/Escritorio/rDock_CMTR_LC/2pxcA_model/inputs_sah

>  <Rbt.Executable>
rbdock ($Id: //depot/dev/client3/rdock/2013.1/src/exe/rbdock.cxx#4 $)

>  <Rbt.Library>
libRbt.so (2013.1, Build901 2013/11/27)

>  <Rbt.Parameter_File>
/home/adria/Escritorio/rDock_2013.1_src/data/scripts/dock.prm

>  <Rbt.Receptor>
sah_rdock.prm

>  <SCORE>
-308.356

>  <SCORE.INTER>
-4.91989

>  <SCORE.INTER.CONST>
1

>  <SCORE.INTER.POLAR>
0

>  <SCORE.INTER.REPUL>
0.00181506

>  <SCORE.INTER.ROT>
8

>  <SCORE.INTER.VDW>
-18.329

>  <SCORE.INTER.norm>
-0.169651

>  <SCORE.INTRA>
-297.473

>  <SCORE.INTRA.DIHEDRAL>
-13.3813

>  <SCORE.INTRA.DIHEDRAL.0>
24.2664

>  <SCORE.INTRA.POLAR>
0

>  <SCORE.INTRA.POLAR.0>
0

>  <SCORE.INTRA.REPUL>
0

>  <SCORE.INTRA.REPUL.0>
0

>  <SCORE.INTRA.VDW>
-290.782

>  <SCORE.INTRA.VDW.0>
288.566

>  <SCORE.INTRA.norm>
-10.2577

>  <SCORE.RESTR>
0.0276733

>  <SCORE.RESTR.CAVITY>
0.0276733

>  <SCORE.RESTR.norm>
0.000954252

>  <SCORE.SYSTEM>
-5.99079

>  <SCORE.SYSTEM.CONST>
0

>  <SCORE.SYSTEM.DIHEDRAL>
6.19509

>  <SCORE.SYSTEM.POLAR>
-3.67894

>  <SCORE.SYSTEM.VDW>
3.42006

>  <SCORE.SYSTEM.norm>
-0.206579

>  <SCORE.heavy>
29

>  <SCORE.norm>
-10.6329

$$$$
F3222-2124
  rDOCK(R)          3D
libRbt.so/2013.1/901 2013/11/27
 30 32  0  0  0  0  0  0  0  0999 V2000
  -26.1817   22.0553  -14.9084 C   0  0  0  0  0  0
  -26.6126   21.0347  -15.9587 C   0  0  0  0  0  0
  -25.4583   20.2964  -16.3733 O   0  0  0  0  0  0
  -24.9576   19.3617  -15.4998 C   0  0  0  0  0  0
  -25.4779   19.1188  -14.4212 O   0  0  0  0  0  0
  -23.6672   18.8820  -16.0045 C   0  0  0  0  0  0
  -22.5808   18.2273  -15.3797 C   0  0  0  0  0  0
  -21.3672   18.4931  -16.2332 C   0  0  0  0  0  0
  -21.6820   19.0078  -17.4601 C   0  0  0  0  0  0
  -23.3161   19.2643  -17.6616 S   0  0  0  0  0  0
  -19.9267   18.3446  -16.0421 C   0  0  0  0  0  0
  -18.6286   19.0327  -17.0120 C   0  0  0  0  0  0
  -17.0499   18.2025  -17.3191 C   0  0  0  0  0  0
  -16.7465   16.5249  -16.7441 C   0  0  0  0  0  0
  -15.4550   15.8637  -17.0100 C   0  0  0  0  0  0
  -18.0380   15.7090  -15.7496 C   0  0  0  0  0  0
  -19.6744   16.8383  -15.3534 C   0  0  0  0  0  0
  -22.8098   17.5431  -13.6933 S   0  0  0  0  0  0
  -23.5953   16.3560  -13.9605 O   0  0  0  0  0  0
  -21.4296   17.4481  -13.2467 O   0  0  0  0  0  0
  -23.5461   18.3146  -12.2900 N   0  0  0  0  0  0
  -23.1058   19.5975  -11.7553 C   0  0  0  0  0  0
  -24.2107   20.8115  -12.3586 C   0  0  0  0  0  0
  -24.8705   21.9679  -11.2112 C   0  0  0  0  0  0
  -25.6567   22.9468  -11.8050 O   0  0  0  0  0  0
  -26.3615   24.0153  -11.2669 C   0  0  0  0  0  0
  -24.3102   21.8592   -9.2414 C   0  0  0  0  0  0
  -23.0195   20.6643   -8.8008 C   0  0  0  0  0  0
  -22.4383   19.5697  -10.0812 C   0  0  0  0  0  0
  -23.5565   17.5865  -11.5725 H   0  0  0  0  0  0
  1  2  1  0  0  0
  2  3  1  0  0  0
  3  4  1  0  0  0
  4  5  2  0  0  0
  4  6  1  0  0  0
  6  7  2  0  0  0
  6 10  1  0  0  0
  7  8  1  0  0  0
  7 18  1  0  0  0
  8  9  2  0  0  0
  8 11  1  0  0  0
  9 10  1  0  0  0
 11 12  2  0  0  0
 11 17  1  0  0  0
 12 13  1  0  0  0
 13 14  2  0  0  0
 14 15  1  0  0  0
 14 16  1  0  0  0
 16 17  2  0  0  0
 18 19  2  0  0  0
 18 20  2  0  0  0
 18 21  1  0  0  0
 21 22  1  0  0  0
 21 30  1  0  0  0
 22 23  2  0  0  0
 22 29  1  0  0  0
 23 24  1  0  0  0
 24 25  1  0  0  0
 24 27  2  0  0  0
 25 26  1  0  0  0
 27 28  1  0  0  0
 28 29  2  0  0  0
M  END
>  <CHROM.0>
-177.12224224,66.67298055,-164.41507133,151.43219731,-31.41667983,62.97056217
-38.63183229,-164.87078456

>  <CHROM.1>
74.05957155,2.15931330,160.35395774,75.32498179,-165.13544908,-55.46323334
99.47831457,179.14841146,-22.62613625,19.17138098,-14.39792640,2.56524882
-0.50957542,1.43355511

>  <Name>
F3222-2124

>  <RI>
4.33053e+07

>  <Rbt.Current_Directory>
/home/adria/Escritorio/rDock_CMTR_LC/2pxcA_model/inputs_sah

>  <Rbt.Executable>
rbdock ($Id: //depot/dev/client3/rdock/2013.1/src/exe/rbdock.cxx#4 $)

>  <Rbt.Library>
libRbt.so (2013.1, Build901 2013/11/27)

>  <Rbt.Parameter_File>
/home/adria/Escritorio/rDock_2013.1_src/data/scripts/dock.prm

>  <Rbt.Receptor>
sah_rdock.prm

>  <SCORE>
-307.358

>  <SCORE.INTER>
-4.83581

>  <SCORE.INTER.CONST>
1

>  <SCORE.INTER.POLAR>
0

>  <SCORE.INTER.REPUL>
0

>  <SCORE.INTER.ROT>
8

>  <SCORE.INTER.VDW>
-18.2358

>  <SCORE.INTER.norm>
-0.166752

>  <SCORE.INTRA>
-299.265

>  <SCORE.INTRA.DIHEDRAL>
-17.1355

>  <SCORE.INTRA.DIHEDRAL.0>
24.2664

>  <SCORE.INTRA.POLAR>
0

>  <SCORE.INTRA.POLAR.0>
0

>  <SCORE.INTRA.REPUL>
0

>  <SCORE.INTRA.REPUL.0>
0

>  <SCORE.INTRA.VDW>
-290.697

>  <SCORE.INTRA.VDW.0>
288.566

>  <SCORE.INTRA.norm>
-10.3195

>  <SCORE.RESTR>
0.0119586

>  <SCORE.RESTR.CAVITY>
0.0119586

>  <SCORE.RESTR.norm>
0.000412366

>  <SCORE.SYSTEM>
-3.26946

>  <SCORE.SYSTEM.CONST>
0

>  <SCORE.SYSTEM.DIHEDRAL>
8.85132

>  <SCORE.SYSTEM.POLAR>
-3.56913

>  <SCORE.SYSTEM.VDW>
4.43991

>  <SCORE.SYSTEM.norm>
-0.11274

>  <SCORE.heavy>
29

>  <SCORE.norm>
-10.5986

$$$$
F3222-2124
  rDOCK(R)          3D
libRbt.so/2013.1/901 2013/11/27
 30 32  0  0  0  0  0  0  0  0999 V2000
  -26.5199   21.4192  -16.3946 C   0  0  0  0  0  0
  -25.8640   20.8513  -15.1386 C   0  0  0  0  0  0
  -24.7896   19.9932  -15.5370 O   0  0  0  0  0  0
  -23.9348   19.5523  -14.5560 C   0  0  0  0  0  0
  -24.0514   19.8749  -13.3831 O   0  0  0  0  0  0
  -22.8297   18.8197  -15.1819 C   0  0  0  0  0  0
  -21.5535   18.4320  -14.7125 C   0  0  0  0  0  0
  -20.6901   18.2234  -15.9302 C   0  0  0  0  0  0
  -21.4104   18.1749  -17.0912 C   0  0  0  0  0  0
  -23.0418   18.4230  -16.8591 S   0  0  0  0  0  0
  -19.2541   18.0802  -16.1568 C   0  0  0  0  0  0
  -18.3325   18.5341  -17.5864 C   0  0  0  0  0  0
  -16.8896   17.6220  -18.1880 C   0  0  0  0  0  0
  -16.3672   16.0821  -17.4181 C   0  0  0  0  0  0
  -15.1919   15.3506  -17.9274 C   0  0  0  0  0  0
  -17.2706   15.5076  -15.9428 C   0  0  0  0  0  0
  -18.7526   16.7317  -15.2984 C   0  0  0  0  0  0
  -21.1920   18.5621  -12.9189 S   0  0  0  0  0  0
  -20.8245   17.1998  -12.5922 O   0  0  0  0  0  0
  -20.2053   19.6298  -12.9152 O   0  0  0  0  0  0
  -22.2567   19.1082  -11.6247 N   0  0  0  0  0  0
  -21.9124   20.1815  -10.7002 C   0  0  0  0  0  0
  -21.6143   21.6115  -11.6618 C   0  0  0  0  0  0
  -22.3813   23.1128  -11.1653 C   0  0  0  0  0  0
  -22.0036   24.2059  -11.9344 O   0  0  0  0  0  0
  -22.2631   25.5631  -11.7978 C   0  0  0  0  0  0
  -23.5636   23.1300   -9.4896 C   0  0  0  0  0  0
  -23.6312   21.6155   -8.4948 C   0  0  0  0  0  0
  -22.7861   20.1783   -9.1236 C   0  0  0  0  0  0
  -22.5227   18.2525  -11.1327 H   0  0  0  0  0  0
  1  2  1  0  0  0
  2  3  1  0  0  0
  3  4  1  0  0  0
  4  5  2  0  0  0
  4  6  1  0  0  0
  6  7  2  0  0  0
  6 10  1  0  0  0
  7  8  1  0  0  0
  7 18  1  0  0  0
  8  9  2  0  0  0
  8 11  1  0  0  0
  9 10  1  0  0  0
 11 12  2  0  0  0
 11 17  1  0  0  0
 12 13  1  0  0  0
 13 14  2  0  0  0
 14 15  1  0  0  0
 14 16  1  0  0  0
 16 17  2  0  0  0
 18 19  2  0  0  0
 18 20  2  0  0  0
 18 21  1  0  0  0
 21 22  1  0  0  0
 21 30  1  0  0  0
 22 23  2  0  0  0
 22 29  1  0  0  0
 23 24  1  0  0  0
 24 25  1  0  0  0
 24 27  2  0  0  0
 25 26  1  0  0  0
 27 28  1  0  0  0
 28 29  2  0  0  0
M  END
>  <CHROM.0>
-67.00074536,67.90407732,109.24926824,67.48452255,-31.84183992,-177.05403912
-157.84818359,-164.71844482

>  <CHROM.1>
169.72580752,-0.84741351,163.12853300,122.71861439,-150.43498531,-125.16307077
58.64003438,-172.64799948,-21.53968499,19.46823262,-14.10607213,2.25175620
-0.42179369,1.11736027

>  <Name>
F3222-2124

>  <RI>
4.33053e+07

>  <Rbt.Current_Directory>
/home/adria/Escritorio/rDock_CMTR_LC/2pxcA_model/inputs_sah

>  <Rbt.Executable>
rbdock ($Id: //depot/dev/client3/rdock/2013.1/src/exe/rbdock.cxx#4 $)

>  <Rbt.Library>
libRbt.so (2013.1, Build901 2013/11/27)

>  <Rbt.Parameter_File>
/home/adria/Escritorio/rDock_2013.1_src/data/scripts/dock.prm

>  <Rbt.Receptor>
sah_rdock.prm

>  <SCORE>
-313.269

>  <SCORE.INTER>
-9.54265

>  <SCORE.INTER.CONST>
1

>  <SCORE.INTER.POLAR>
-0.702564

>  <SCORE.INTER.REPUL>
0.0119349

>  <SCORE.INTER.ROT>
8

>  <SCORE.INTER.VDW>
-20.6136

>  <SCORE.INTER.norm>
-0.329057

>  <SCORE.INTRA>
-296.708

>  <SCORE.INTRA.DIHEDRAL>
-12.6806

>  <SCORE.INTRA.DIHEDRAL.0>
24.2664

>  <SCORE.INTRA.POLAR>
0

>  <SCORE.INTRA.POLAR.0>
0

>  <SCORE.INTRA.REPUL>
0.000310167

>  <SCORE.INTRA.REPUL.0>
0

>  <SCORE.INTRA.VDW>
-290.369

>  <SCORE.INTRA.VDW.0>
288.566

>  <SCORE.INTRA.norm>
-10.2313

>  <SCORE.RESTR>
0

>  <SCORE.RESTR.CAVITY>
0

>  <SCORE.RESTR.norm>
0

>  <SCORE.SYSTEM>
-7.01872

>  <SCORE.SYSTEM.CONST>
0

>  <SCORE.SYSTEM.DIHEDRAL>
8.82754

>  <SCORE.SYSTEM.POLAR>
-4.27848

>  <SCORE.SYSTEM.VDW>
3.11435

>  <SCORE.SYSTEM.norm>
-0.242025

>  <SCORE.heavy>
29

>  <SCORE.norm>
-10.8024

$$$$
F3222-2124
  rDOCK(R)          3D
libRbt.so/2013.1/901 2013/11/27
 30 32  0  0  0  0  0  0  0  0999 V2000
  -25.9178   20.6179  -10.5566 C   0  0  0  0  0  0
  -24.8634   20.0477   -9.6114 C   0  0  0  0  0  0
  -23.8621   19.3887  -10.3942 O   0  0  0  0  0  0
  -22.9467   20.1792  -11.0460 C   0  0  0  0  0  0
  -22.9957   21.4001  -11.0283 O   0  0  0  0  0  0
  -22.0728   19.3256  -11.8567 C   0  0  0  0  0  0
  -20.8951   19.5900  -12.5932 C   0  0  0  0  0  0
  -20.7809   18.5027  -13.6308 C   0  0  0  0  0  0
  -21.6281   17.4549  -13.3990 C   0  0  0  0  0  0
  -22.6056   17.6866  -12.0695 S   0  0  0  0  0  0
  -19.9842   18.3202  -14.8415 C   0  0  0  0  0  0
  -19.1052   16.8834  -15.3535 C   0  0  0  0  0  0
  -17.5408   16.9284  -16.2626 C   0  0  0  0  0  0
  -16.6977   18.4817  -16.5996 C   0  0  0  0  0  0
  -15.4203   18.4964  -17.3370 C   0  0  0  0  0  0
  -17.5111   20.0310  -16.0886 C   0  0  0  0  0  0
  -19.3368   19.8146  -15.2344 C   0  0  0  0  0  0
  -20.0387   21.1936  -12.3490 S   0  0  0  0  0  0
  -20.3232   21.4712  -10.9563 O   0  0  0  0  0  0
  -18.6952   20.8565  -12.7905 O   0  0  0  0  0  0
  -20.2868   22.7095  -13.2135 N   0  0  0  0  0  0
  -20.5751   23.9750  -12.5496 C   0  0  0  0  0  0
  -22.3154   24.1305  -12.4745 C   0  0  0  0  0  0
  -23.0361   24.5877  -10.9380 C   0  0  0  0  0  0
  -24.4099   24.7797  -11.0085 O   0  0  0  0  0  0
  -25.3724   24.2506  -11.8579 C   0  0  0  0  0  0
  -21.8211   24.9341   -9.3226 C   0  0  0  0  0  0
  -20.0293   24.9118   -9.6001 C   0  0  0  0  0  0
  -19.4522   24.4447  -11.2200 C   0  0  0  0  0  0
  -20.9834   22.4868  -13.9277 H   0  0  0  0  0  0
  1  2  1  0  0  0
  2  3  1  0  0  0
  3  4  1  0  0  0
  4  5  2  0  0  0
  4  6  1  0  0  0
  6  7  2  0  0  0
  6 10  1  0  0  0
  7  8  1  0  0  0
  7 18  1  0  0  0
  8  9  2  0  0  0
  8 11  1  0  0  0
  9 10  1  0  0  0
 11 12  2  0  0  0
 11 17  1  0  0  0
 12 13  1  0  0  0
 13 14  2  0  0  0
 14 15  1  0  0  0
 14 16  1  0  0  0
 16 17  2  0  0  0
 18 19  2  0  0  0
 18 20  2  0  0  0
 18 21  1  0  0  0
 21 22  1  0  0  0
 21 30  1  0  0  0
 22 23  2  0  0  0
 22 29  1  0  0  0
 23 24  1  0  0  0
 24 25  1  0  0  0
 24 27  2  0  0  0
 25 26  1  0  0  0
 27 28  1  0  0  0
 28 29  2  0  0  0
M  END
>  <CHROM.0>
173.14151867,-167.61464110,-8.64428940,64.04450014,-31.04251257,-172.61153212
81.47072798,-167.92613960

>  <CHROM.1>
76.66613837,-3.35031460,-171.89921766,31.97923810,134.69360339,126.05724292
-92.42374846,26.63720626,-21.13784993,20.79219101,-12.54106629,2.37968757
0.54371620,0.30593069

>  <Name>
F3222-2124

>  <RI>
4.33053e+07

>  <Rbt.Current_Directory>
/home/adria/Escritorio/rDock_CMTR_LC/2pxcA_model/inputs_sah

>  <Rbt.Executable>
rbdock ($Id: //depot/dev/client3/rdock/2013.1/src/exe/rbdock.cxx#4 $)

>  <Rbt.Library>
libRbt.so (2013.1, Build901 2013/11/27)

>  <Rbt.Parameter_File>
/home/adria/Escritorio/rDock_2013.1_src/data/scripts/dock.prm

>  <Rbt.Receptor>
sah_rdock.prm

>  <SCORE>
-314.62

>  <SCORE.INTER>
-11.8292

>  <SCORE.INTER.CONST>
1

>  <SCORE.INTER.POLAR>
-0.682712

>  <SCORE.INTER.REPUL>
0.0013079

>  <SCORE.INTER.ROT>
8

>  <SCORE.INTER.VDW>
-22.9145

>  <SCORE.INTER.norm>
-0.407903

>  <SCORE.INTRA>
-297.345

>  <SCORE.INTRA.DIHEDRAL>
-13.7505

>  <SCORE.INTRA.DIHEDRAL.0>
24.2664

>  <SCORE.INTRA.POLAR>
0

>  <SCORE.INTRA.POLAR.0>
0

>  <SCORE.INTRA.REPUL>
0

>  <SCORE.INTRA.REPUL.0>
0

>  <SCORE.INTRA.VDW>
-290.47

>  <SCORE.INTRA.VDW.0>
288.566

>  <SCORE.INTRA.norm>
-10.2533

>  <SCORE.RESTR>
0

>  <SCORE.RESTR.CAVITY>
0

>  <SCORE.RESTR.norm>
0

>  <SCORE.SYSTEM>
-5.44561

>  <SCORE.SYSTEM.CONST>
0

>  <SCORE.SYSTEM.DIHEDRAL>
9.22905

>  <SCORE.SYSTEM.POLAR>
-4.1673

>  <SCORE.SYSTEM.VDW>
4.10867

>  <SCORE.SYSTEM.norm>
-0.18778

>  <SCORE.heavy>
29

>  <SCORE.norm>
-10.849

$$$$
F3222-2124
  rDOCK(R)          3D
libRbt.so/2013.1/901 2013/11/27
 30 32  0  0  0  0  0  0  0  0999 V2000
  -25.0419   17.5338   -9.9272 C   0  0  0  0  0  0
  -24.4972   18.8881   -9.4806 C   0  0  0  0  0  0
  -23.5374   19.3311  -10.4461 O   0  0  0  0  0  0
  -22.8578   20.4940  -10.1752 C   0  0  0  0  0  0
  -23.0902   21.1824   -9.1927 O   0  0  0  0  0  0
  -21.9897   20.8137  -11.3127 C   0  0  0  0  0  0
  -21.4320   20.0200  -12.3414 C   0  0  0  0  0  0
  -20.2255   20.7634  -12.8549 C   0  0  0  0  0  0
  -20.1752   22.0594  -12.4225 C   0  0  0  0  0  0
  -21.4245   22.4537  -11.3926 S   0  0  0  0  0  0
  -19.0842   20.4097  -13.6953 C   0  0  0  0  0  0
  -18.5249   21.2149  -15.1575 C   0  0  0  0  0  0
  -17.7767   20.3514  -16.5613 C   0  0  0  0  0  0
  -17.6693   18.5560  -16.6073 C   0  0  0  0  0  0
  -17.0613   17.8710  -17.7635 C   0  0  0  0  0  0
  -18.2444   17.6218  -15.1515 C   0  0  0  0  0  0
  -18.8971   18.7478  -13.5971 C   0  0  0  0  0  0
  -22.0523   18.3098  -12.5761 S   0  0  0  0  0  0
  -21.3551   17.9055  -13.7794 O   0  0  0  0  0  0
  -21.7303   17.7224  -11.2858 O   0  0  0  0  0  0
  -23.7181   17.7665  -12.7664 N   0  0  0  0  0  0
  -24.3841   17.6550  -14.0585 C   0  0  0  0  0  0
  -25.3243   19.1130  -14.2790 C   0  0  0  0  0  0
  -25.1932   19.9531  -15.8172 C   0  0  0  0  0  0
  -26.0511   21.0398  -15.9271 O   0  0  0  0  0  0
  -26.8784   21.6589  -14.9996 C   0  0  0  0  0  0
  -23.9736   19.1887  -17.2780 C   0  0  0  0  0  0
  -23.2054   17.5752  -16.9704 C   0  0  0  0  0  0
  -23.4456   16.8410  -15.3646 C   0  0  0  0  0  0
  -24.2522   18.3412  -12.1112 H   0  0  0  0  0  0
  1  2  1  0  0  0
  2  3  1  0  0  0
  3  4  1  0  0  0
  4  5  2  0  0  0
  4  6  1  0  0  0
  6  7  2  0  0  0
  6 10  1  0  0  0
  7  8  1  0  0  0
  7 18  1  0  0  0
  8  9  2  0  0  0
  8 11  1  0  0  0
  9 10  1  0  0  0
 11 12  2  0  0  0
 11 17  1  0  0  0
 12 13  1  0  0  0
 13 14  2  0  0  0
 14 15  1  0  0  0
 14 16  1  0  0  0
 16 17  2  0  0  0
 18 19  2  0  0  0
 18 20  2  0  0  0
 18 21  1  0  0  0
 21 22  1  0  0  0
 21 30  1  0  0  0
 22 23  2  0  0  0
 22 29  1  0  0  0
 23 24  1  0  0  0
 24 25  1  0  0  0
 24 27  2  0  0  0
 25 26  1  0  0  0
 27 28  1  0  0  0
 28 29  2  0  0  0
M  END
>  <CHROM.0>
-60.91543130,-74.69239024,-46.76957482,-62.86201093,-31.02721662,178.18451240
-43.76592365,-159.01013869

>  <CHROM.1>
-175.46630480,-3.79959711,-22.84838045,174.07219314,126.11313553,89.74152327
-97.41837863,7.91684312,-22.07843908,19.48039258,-13.36809106,-2.47412044
-0.08991557,-1.84862635

>  <Name>
F3222-2124

>  <RI>
4.33053e+07

>  <Rbt.Current_Directory>
/home/adria/Escritorio/rDock_CMTR_LC/2pxcA_model/inputs_sah

>  <Rbt.Executable>
rbdock ($Id: //depot/dev/client3/rdock/2013.1/src/exe/rbdock.cxx#4 $)

>  <Rbt.Library>
libRbt.so (2013.1, Build901 2013/11/27)

>  <Rbt.Parameter_File>
/home/adria/Escritorio/rDock_2013.1_src/data/scripts/dock.prm

>  <Rbt.Receptor>
sah_rdock.prm

>  <SCORE>
-313.036

>  <SCORE.INTER>
-6.91113

>  <SCORE.INTER.CONST>
1

>  <SCORE.INTER.POLAR>
-0.379499

>  <SCORE.INTER.REPUL>
0.000266406

>  <SCORE.INTER.ROT>
8

>  <SCORE.INTER.VDW>
-19.0222

>  <SCORE.INTER.norm>
-0.238315

>  <SCORE.INTRA>
-298.981

>  <SCORE.INTRA.DIHEDRAL>
-15.3986

>  <SCORE.INTRA.DIHEDRAL.0>
24.2664

>  <SCORE.INTRA.POLAR>
-0.545427

>  <SCORE.INTRA.POLAR.0>
0

>  <SCORE.INTRA.REPUL>
0

>  <SCORE.INTRA.REPUL.0>
0

>  <SCORE.INTRA.VDW>
-289.427

>  <SCORE.INTRA.VDW.0>
288.566

>  <SCORE.INTRA.norm>
-10.3097

>  <SCORE.RESTR>
0.00401247

>  <SCORE.RESTR.CAVITY>
0.00401247

>  <SCORE.RESTR.norm>
0.000138361

>  <SCORE.SYSTEM>
-7.14749

>  <SCORE.SYSTEM.CONST>
0

>  <SCORE.SYSTEM.DIHEDRAL>
6.11594

>  <SCORE.SYSTEM.POLAR>
-3.84071

>  <SCORE.SYSTEM.REPUL>
0.0414167

>  <SCORE.SYSTEM.VDW>
2.64588

>  <SCORE.SYSTEM.norm>
-0.246465

>  <SCORE.heavy>
29

>  <SCORE.norm>
-10.7943

$$$$
F3222-2124
  rDOCK(R)          3D
libRbt.so/2013.1/901 2013/11/27
 30 32  0  0  0  0  0  0  0  0999 V2000
  -21.6679   25.4305   -9.8165 C   0  0  0  0  0  0
  -22.3955   24.0922   -9.9154 C   0  0  0  0  0  0
  -21.7249   23.2827  -10.8873 O   0  0  0  0  0  0
  -22.1072   21.9669  -10.9873 C   0  0  0  0  0  0
  -22.8027   21.4147  -10.1479 O   0  0  0  0  0  0
  -21.4131   21.3548  -12.1245 C   0  0  0  0  0  0
  -21.0199   20.0250  -12.4003 C   0  0  0  0  0  0
  -19.8956   20.1053  -13.4009 C   0  0  0  0  0  0
  -19.7707   21.3456  -13.9624 C   0  0  0  0  0  0
  -20.8513   22.4541  -13.3457 S   0  0  0  0  0  0
  -18.8936   19.1644  -13.8953 C   0  0  0  0  0  0
  -17.4821   19.5081  -14.8896 C   0  0  0  0  0  0
  -16.8294   18.3749  -16.1409 C   0  0  0  0  0  0
  -17.6764   16.8407  -16.5480 C   0  0  0  0  0  0
  -17.1312   15.9335  -17.5753 C   0  0  0  0  0  0
  -19.1654   16.4000  -15.5932 C   0  0  0  0  0  0
  -19.6655   17.6937  -14.1146 C   0  0  0  0  0  0
  -21.6832   18.6703  -11.3565 S   0  0  0  0  0  0
  -20.8730   17.5472  -11.7805 O   0  0  0  0  0  0
  -21.5344   19.2483  -10.0308 O   0  0  0  0  0  0
  -23.3389   18.0738  -11.2597 N   0  0  0  0  0  0
  -24.1401   17.7341  -12.4294 C   0  0  0  0  0  0
  -25.0064   19.1800  -12.8958 C   0  0  0  0  0  0
  -24.9829   19.6436  -14.5910 C   0  0  0  0  0  0
  -25.7790   20.7464  -14.8723 O   0  0  0  0  0  0
  -26.1223   21.3534  -16.0730 C   0  0  0  0  0  0
  -23.9698   18.4748  -15.9376 C   0  0  0  0  0  0
  -23.2750   16.9117  -15.3362 C   0  0  0  0  0  0
  -23.3932   16.5751  -13.5904 C   0  0  0  0  0  0
  -23.8174   18.7417  -10.6514 H   0  0  0  0  0  0
  1  2  1  0  0  0
  2  3  1  0  0  0
  3  4  1  0  0  0
  4  5  2  0  0  0
  4  6  1  0  0  0
  6  7  2  0  0  0
  6 10  1  0  0  0
  7  8  1  0  0  0
  7 18  1  0  0  0
  8  9  2  0  0  0
  8 11  1  0  0  0
  9 10  1  0  0  0
 11 12  2  0  0  0
 11 17  1  0  0  0
 12 13  1  0  0  0
 13 14  2  0  0  0
 14 15  1  0  0  0
 14 16  1  0  0  0
 16 17  2  0  0  0
 18 19  2  0  0  0
 18 20  2  0  0  0
 18 21  1  0  0  0
 21 22  1  0  0  0
 21 30  1  0  0  0
 22 23  2  0  0  0
 22 29  1  0  0  0
 23 24  1  0  0  0
 24 25  1  0  0  0
 24 27  2  0  0  0
 25 26  1  0  0  0
 27 28  1  0  0  0
 28 29  2  0  0  0
M  END
>  <CHROM.0>
-174.81821648,-169.31869143,-166.50717154,-61.01399118,-31.45273942,-56.55798909
87.11252371,-161.35228175

>  <CHROM.1>
170.83804406,-13.19596602,152.46292336,-169.76494371,-169.23076390,49.14966956
-90.65574742,-173.87443786,-21.56643216,19.77197744,-13.15952609,-2.09835544
-0.05756992,-2.46101117

>  <Name>
F3222-2124

>  <RI>
4.33053e+07

>  <Rbt.Current_Directory>
/home/adria/Escritorio/rDock_CMTR_LC/2pxcA_model/inputs_sah

>  <Rbt.Executable>
rbdock ($Id: //depot/dev/client3/rdock/2013.1/src/exe/rbdock.cxx#4 $)

>  <Rbt.Library>
libRbt.so (2013.1, Build901 2013/11/27)

>  <Rbt.Parameter_File>
/home/adria/Escritorio/rDock_2013.1_src/data/scripts/dock.prm

>  <Rbt.Receptor>
sah_rdock.prm

>  <SCORE>
-315.07

>  <SCORE.INTER>
-11.1248

>  <SCORE.INTER.CONST>
1

>  <SCORE.INTER.POLAR>
-0.625622

>  <SCORE.INTER.REPUL>
0

>  <SCORE.INTER.ROT>
8

>  <SCORE.INTER.VDW>
-22.3977

>  <SCORE.INTER.norm>
-0.383614

>  <SCORE.INTRA>
-298.705

>  <SCORE.INTRA.DIHEDRAL>
-16.0316

>  <SCORE.INTRA.DIHEDRAL.0>
24.2664

>  <SCORE.INTRA.POLAR>
0

>  <SCORE.INTRA.POLAR.0>
0

>  <SCORE.INTRA.REPUL>
0

>  <SCORE.INTRA.REPUL.0>
0

>  <SCORE.INTRA.VDW>
-290.69

>  <SCORE.INTRA.VDW.0>
288.566

>  <SCORE.INTRA.norm>
-10.3002

>  <SCORE.RESTR>
0

>  <SCORE.RESTR.CAVITY>
0

>  <SCORE.RESTR.norm>
0

>  <SCORE.SYSTEM>
-5.23962

>  <SCORE.SYSTEM.CONST>
0

>  <SCORE.SYSTEM.DIHEDRAL>
6.49155

>  <SCORE.SYSTEM.POLAR>
-3.60175

>  <SCORE.SYSTEM.VDW>
3.76056

>  <SCORE.SYSTEM.norm>
-0.180677

>  <SCORE.heavy>
29

>  <SCORE.norm>
-10.8645

$$$$
F3222-2124
  rDOCK(R)          3D
libRbt.so/2013.1/901 2013/11/27
 30 32  0  0  0  0  0  0  0  0999 V2000
  -16.0860   18.0859  -17.7399 C   0  0  0  0  0  0
  -17.5557   17.8970  -17.3732 C   0  0  0  0  0  0
  -17.9315   18.9334  -16.4599 O   0  0  0  0  0  0
  -19.0882   18.7541  -15.7405 C   0  0  0  0  0  0
  -19.8755   17.8479  -15.9691 O   0  0  0  0  0  0
  -19.2647   19.8914  -14.8322 C   0  0  0  0  0  0
  -19.9509   20.0358  -13.6044 C   0  0  0  0  0  0
  -20.2451   21.5054  -13.4438 C   0  0  0  0  0  0
  -19.5492   22.2865  -14.3241 C   0  0  0  0  0  0
  -18.6113   21.4037  -15.3813 S   0  0  0  0  0  0
  -21.1203   22.2869  -12.5738 C   0  0  0  0  0  0
  -22.0087   21.7387  -11.1563 C   0  0  0  0  0  0
  -23.6326   22.3764  -10.6746 C   0  0  0  0  0  0
  -24.5226   23.5494  -11.7086 C   0  0  0  0  0  0
  -25.8479   24.0525  -11.3010 C   0  0  0  0  0  0
  -23.7016   24.1640  -13.2156 C   0  0  0  0  0  0
  -21.8179   23.4797  -13.5210 C   0  0  0  0  0  0
  -20.5380   18.5310  -12.7352 S   0  0  0  0  0  0
  -19.3931   17.6527  -12.8595 O   0  0  0  0  0  0
  -20.9223   19.0900  -11.4493 O   0  0  0  0  0  0
  -21.9553   17.5451  -13.0900 N   0  0  0  0  0  0
  -23.0904   18.0217  -13.8708 C   0  0  0  0  0  0
  -22.7962   17.5682  -15.5340 C   0  0  0  0  0  0
  -24.1022   16.7954  -16.4206 C   0  0  0  0  0  0
  -23.8014   16.5655  -17.7569 O   0  0  0  0  0  0
  -24.4912   15.8889  -18.7541 C   0  0  0  0  0  0
  -25.9002   16.4787  -15.4863 C   0  0  0  0  0  0
  -26.1138   17.1664  -13.8222 C   0  0  0  0  0  0
  -24.6988   17.9371  -13.0613 C   0  0  0  0  0  0
  -22.2457   17.1765  -12.1818 H   0  0  0  0  0  0
  1  2  1  0  0  0
  2  3  1  0  0  0
  3  4  1  0  0  0
  4  5  2  0  0  0
  4  6  1  0  0  0
  6  7  2  0  0  0
  6 10  1  0  0  0
  7  8  1  0  0  0
  7 18  1  0  0  0
  8  9  2  0  0  0
  8 11  1  0  0  0
  9 10  1  0  0  0
 11 12  2  0  0  0
 11 17  1  0  0  0
 12 13  1  0  0  0
 13 14  2  0  0  0
 14 15  1  0  0  0
 14 16  1  0  0  0
 16 17  2  0  0  0
 18 19  2  0  0  0
 18 20  2  0  0  0
 18 21  1  0  0  0
 21 22  1  0  0  0
 21 30  1  0  0  0
 22 23  2  0  0  0
 22 29  1  0  0  0
 23 24  1  0  0  0
 24 25  1  0  0  0
 24 27  2  0  0  0
 25 26  1  0  0  0
 27 28  1  0  0  0
 28 29  2  0  0  0
M  END
>  <CHROM.0>
179.98012057,-74.00333885,110.31853581,63.11061909,-31.56869460,179.24116235
81.61790285,-165.55355156

>  <CHROM.1>
-163.36536161,-9.40294520,-154.74484740,43.81608723,10.86175180,-19.95281798
92.83476127,173.62744675,-21.44981730,19.52411117,-14.30147610,-0.98654762
0.24764905,0.63774170

>  <Name>
F3222-2124

>  <RI>
4.33053e+07

>  <Rbt.Current_Directory>
/home/adria/Escritorio/rDock_CMTR_LC/2pxcA_model/inputs_sah

>  <Rbt.Executable>
rbdock ($Id: //depot/dev/client3/rdock/2013.1/src/exe/rbdock.cxx#4 $)

>  <Rbt.Library>
libRbt.so (2013.1, Build901 2013/11/27)

>  <Rbt.Parameter_File>
/home/adria/Escritorio/rDock_2013.1_src/data/scripts/dock.prm

>  <Rbt.Receptor>
sah_rdock.prm

>  <SCORE>
-311.601

>  <SCORE.INTER>
-9.58156

>  <SCORE.INTER.CONST>
1

>  <SCORE.INTER.POLAR>
-0.89005

>  <SCORE.INTER.REPUL>
0

>  <SCORE.INTER.ROT>
8

>  <SCORE.INTER.VDW>
-19.9554

>  <SCORE.INTER.norm>
-0.330398

>  <SCORE.INTRA>
-296.281

>  <SCORE.INTRA.DIHEDRAL>
-14.0382

>  <SCORE.INTRA.DIHEDRAL.0>
24.2664

>  <SCORE.INTRA.POLAR>
0

>  <SCORE.INTRA.POLAR.0>
0

>  <SCORE.INTRA.REPUL>
0

>  <SCORE.INTRA.REPUL.0>
0

>  <SCORE.INTRA.VDW>
-289.262

>  <SCORE.INTRA.VDW.0>
288.566

>  <SCORE.INTRA.norm>
-10.2166

>  <SCORE.RESTR>
1.21034

>  <SCORE.RESTR.CAVITY>
1.21034

>  <SCORE.RESTR.norm>
0.0417359

>  <SCORE.SYSTEM>
-6.94868

>  <SCORE.SYSTEM.CONST>
0

>  <SCORE.SYSTEM.DIHEDRAL>
8.98624

>  <SCORE.SYSTEM.POLAR>
-4.51411

>  <SCORE.SYSTEM.REPUL>
0.0402778

>  <SCORE.SYSTEM.VDW>
3.70477

>  <SCORE.SYSTEM.norm>
-0.23961

>  <SCORE.heavy>
29

>  <SCORE.norm>
-10.7449

$$$$
F3222-2124
  rDOCK(R)          3D
libRbt.so/2013.1/901 2013/11/27
 30 32  0  0  0  0  0  0  0  0999 V2000
  -19.0764   16.8394  -17.0316 C   0  0  0  0  0  0
  -18.8646   16.3608  -15.5976 C   0  0  0  0  0  0
  -19.3881   17.3520  -14.7071 O   0  0  0  0  0  0
  -18.6675   18.5120  -14.5573 C   0  0  0  0  0  0
  -17.6478   18.7435  -15.1896 O   0  0  0  0  0  0
  -19.2252   19.2774  -13.4379 C   0  0  0  0  0  0
  -20.5415   19.4243  -12.9430 C   0  0  0  0  0  0
  -20.5723   20.7209  -12.1750 C   0  0  0  0  0  0
  -19.3247   21.2216  -11.9261 C   0  0  0  0  0  0
  -18.1060   20.3008  -12.5921 S   0  0  0  0  0  0
  -21.6333   21.5775  -11.6512 C   0  0  0  0  0  0
  -23.0215   21.1087  -10.6754 C   0  0  0  0  0  0
  -24.6473   21.8956  -10.7904 C   0  0  0  0  0  0
  -24.9933   23.1539  -12.0290 C   0  0  0  0  0  0
  -26.3270   23.7788  -12.1102 C   0  0  0  0  0  0
  -23.6292   23.6957  -13.1099 C   0  0  0  0  0  0
  -21.8309   22.8366  -12.7385 C   0  0  0  0  0  0
  -21.8471   18.2857  -13.5461 S   0  0  0  0  0  0
  -21.6730   17.1461  -12.6694 O   0  0  0  0  0  0
  -23.0204   19.1386  -13.4485 O   0  0  0  0  0  0
  -22.0638   17.6303  -15.1678 N   0  0  0  0  0  0
  -23.2881   17.7921  -15.9426 C   0  0  0  0  0  0
  -24.6131   17.8518  -14.8027 C   0  0  0  0  0  0
  -25.8021   19.1328  -14.9880 C   0  0  0  0  0  0
  -26.8629   19.0339  -14.0969 O   0  0  0  0  0  0
  -27.6653   20.0017  -13.5076 C   0  0  0  0  0  0
  -25.5999   20.4758  -16.5246 C   0  0  0  0  0  0
  -24.2799   20.1777  -17.7315 C   0  0  0  0  0  0
  -23.1626   18.8265  -17.4135 C   0  0  0  0  0  0
  -21.7917   16.6483  -15.0865 H   0  0  0  0  0  0
  1  2  1  0  0  0
  2  3  1  0  0  0
  3  4  1  0  0  0
  4  5  2  0  0  0
  4  6  1  0  0  0
  6  7  2  0  0  0
  6 10  1  0  0  0
  7  8  1  0  0  0
  7 18  1  0  0  0
  8  9  2  0  0  0
  8 11  1  0  0  0
  9 10  1  0  0  0
 11 12  2  0  0  0
 11 17  1  0  0  0
 12 13  1  0  0  0
 13 14  2  0  0  0
 14 15  1  0  0  0
 14 16  1  0  0  0
 16 17  2  0  0  0
 18 19  2  0  0  0
 18 20  2  0  0  0
 18 21  1  0  0  0
 21 22  1  0  0  0
 21 30  1  0  0  0
 22 23  2  0  0  0
 22 29  1  0  0  0
 23 24  1  0  0  0
 24 25  1  0  0  0
 24 27  2  0  0  0
 25 26  1  0  0  0
 27 28  1  0  0  0
 28 29  2  0  0  0
M  END
>  <CHROM.0>
-60.52675512,-72.23215161,-45.92051247,60.64007422,168.77474839,-176.90631522
83.15424281,-163.26157403

>  <CHROM.1>
-73.77540407,3.21017928,-33.48380540,84.63161797,49.77769038,-123.54413281
-31.38029467,149.38060189,-22.12287449,19.62788526,-13.85312140,0.40363119
0.18863024,-2.37134681

>  <Name>
F3222-2124

>  <RI>
4.33053e+07

>  <Rbt.Current_Directory>
/home/adria/Escritorio/rDock_CMTR_LC/2pxcA_model/inputs_sah

>  <Rbt.Executable>
rbdock ($Id: //depot/dev/client3/rdock/2013.1/src/exe/rbdock.cxx#4 $)

>  <Rbt.Library>
libRbt.so (2013.1, Build901 2013/11/27)

>  <Rbt.Parameter_File>
/home/adria/Escritorio/rDock_2013.1_src/data/scripts/dock.prm

>  <Rbt.Receptor>
sah_rdock.prm

>  <SCORE>
-297.914

>  <SCORE.INTER>
-3.51052

>  <SCORE.INTER.CONST>
1

>  <SCORE.INTER.POLAR>
0

>  <SCORE.INTER.REPUL>
0.00813214

>  <SCORE.INTER.ROT>
8

>  <SCORE.INTER.VDW>
-16.9512

>  <SCORE.INTER.norm>
-0.121052

>  <SCORE.INTRA>
-291.926

>  <SCORE.INTRA.DIHEDRAL>
-5.24247

>  <SCORE.INTRA.DIHEDRAL.0>
24.2664

>  <SCORE.INTRA.POLAR>
0

>  <SCORE.INTRA.POLAR.0>
0

>  <SCORE.INTRA.REPUL>
0

>  <SCORE.INTRA.REPUL.0>
0

>  <SCORE.INTRA.VDW>
-289.305

>  <SCORE.INTRA.VDW.0>
288.566

>  <SCORE.INTRA.norm>
-10.0664

>  <SCORE.RESTR>
0.0727127

>  <SCORE.RESTR.CAVITY>
0.0727127

>  <SCORE.RESTR.norm>
0.00250734

>  <SCORE.SYSTEM>
-2.54987

>  <SCORE.SYSTEM.CONST>
0

>  <SCORE.SYSTEM.DIHEDRAL>
3.37887

>  <SCORE.SYSTEM.POLAR>
-3.89044

>  <SCORE.SYSTEM.REPUL>
0.0371356

>  <SCORE.SYSTEM.VDW>
8.80251

>  <SCORE.SYSTEM.norm>
-0.0879264

>  <SCORE.heavy>
29

>  <SCORE.norm>
-10.2729

$$$$
F3222-2124
  rDOCK(R)          3D
libRbt.so/2013.1/901 2013/11/27
 30 32  0  0  0  0  0  0  0  0999 V2000
  -24.0667   22.1699   -8.1834 C   0  0  0  0  0  0
  -24.8082   21.2029   -9.1029 C   0  0  0  0  0  0
  -23.8412   20.4336   -9.8259 O   0  0  0  0  0  0
  -24.2742   19.7623  -10.9436 C   0  0  0  0  0  0
  -25.4574   19.6284  -11.2178 O   0  0  0  0  0  0
  -23.1227   19.1294  -11.5942 C   0  0  0  0  0  0
  -21.9912   19.6571  -12.2578 C   0  0  0  0  0  0
  -21.4801   18.5719  -13.1705 C   0  0  0  0  0  0
  -22.0310   17.3493  -12.9039 C   0  0  0  0  0  0
  -23.1667   17.3958  -11.6854 S   0  0  0  0  0  0
  -20.5430   18.5307  -14.2903 C   0  0  0  0  0  0
  -19.3547   17.2865  -14.6632 C   0  0  0  0  0  0
  -17.7437   17.6235  -15.4161 C   0  0  0  0  0  0
  -17.1871   19.3067  -15.7232 C   0  0  0  0  0  0
  -15.8679   19.5603  -16.3323 C   0  0  0  0  0  0
  -18.3330   20.6740  -15.3489 C   0  0  0  0  0  0
  -20.1603   20.1168  -14.6702 C   0  0  0  0  0  0
  -21.6312   21.4494  -12.1065 S   0  0  0  0  0  0
  -22.3136   21.9865  -13.2655 O   0  0  0  0  0  0
  -22.1125   21.7125  -10.7601 O   0  0  0  0  0  0
  -20.0616   22.2489  -12.0454 N   0  0  0  0  0  0
  -19.8996   23.6933  -11.9328 C   0  0  0  0  0  0
  -21.4021   24.4206  -12.4546 C   0  0  0  0  0  0
  -22.1075   25.6713  -11.4412 C   0  0  0  0  0  0
  -23.2432   26.2515  -11.9911 O   0  0  0  0  0  0
  -24.0949   25.8314  -13.0041 C   0  0  0  0  0  0
  -21.1426   26.2324   -9.7207 C   0  0  0  0  0  0
  -19.5053   25.5196   -9.4062 C   0  0  0  0  0  0
  -18.9185   24.2729  -10.5361 C   0  0  0  0  0  0
  -19.5487   21.8693  -12.8441 H   0  0  0  0  0  0
  1  2  1  0  0  0
  2  3  1  0  0  0
  3  4  1  0  0  0
  4  5  2  0  0  0
  4  6  1  0  0  0
  6  7  2  0  0  0
  6 10  1  0  0  0
  7  8  1  0  0  0
  7 18  1  0  0  0
  8  9  2  0  0  0
  8 11  1  0  0  0
  9 10  1  0  0  0
 11 12  2  0  0  0
 11 17  1  0  0  0
 12 13  1  0  0  0
 13 14  2  0  0  0
 14 15  1  0  0  0
 14 16  1  0  0  0
 16 17  2  0  0  0
 18 19  2  0  0  0
 18 20  2  0  0  0
 18 21  1  0  0  0
 21 22  1  0  0  0
 21 30  1  0  0  0
 22 23  2  0  0  0
 22 29  1  0  0  0
 23 24  1  0  0  0
 24 25  1  0  0  0
 24 27  2  0  0  0
 25 26  1  0  0  0
 27 28  1  0  0  0
 28 29  2  0  0  0
M  END
>  <CHROM.0>
-169.76164800,66.60316200,-24.43809800,62.94705314,-31.19595042,60.22905230
81.57931793,-49.58514554

>  <CHROM.1>
-163.39159579,-11.59020276,-67.04812417,-92.56966993,140.63859603,179.53230535
-20.22903958,17.75206741,-21.53591427,21.19284544,-12.20158703,2.14658005
0.59760315,0.26546723

>  <Name>
F3222-2124

>  <RI>
4.33053e+07

>  <Rbt.Current_Directory>
/home/adria/Escritorio/rDock_CMTR_LC/2pxcA_model/inputs_sah

>  <Rbt.Executable>
rbdock ($Id: //depot/dev/client3/rdock/2013.1/src/exe/rbdock.cxx#4 $)

>  <Rbt.Library>
libRbt.so (2013.1, Build901 2013/11/27)

>  <Rbt.Parameter_File>
/home/adria/Escritorio/rDock_2013.1_src/data/scripts/dock.prm

>  <Rbt.Receptor>
sah_rdock.prm

>  <SCORE>
-307.753

>  <SCORE.INTER>
-9.5156

>  <SCORE.INTER.CONST>
1

>  <SCORE.INTER.POLAR>
-0.86864

>  <SCORE.INTER.REPUL>
0

>  <SCORE.INTER.ROT>
8

>  <SCORE.INTER.VDW>
-19.9622

>  <SCORE.INTER.norm>
-0.328124

>  <SCORE.INTRA>
-294.435

>  <SCORE.INTRA.DIHEDRAL>
-9.60313

>  <SCORE.INTRA.DIHEDRAL.0>
24.2664

>  <SCORE.INTRA.POLAR>
0

>  <SCORE.INTRA.POLAR.0>
0

>  <SCORE.INTRA.REPUL>
0.00456817

>  <SCORE.INTRA.REPUL.0>
0

>  <SCORE.INTRA.VDW>
-289.656

>  <SCORE.INTRA.VDW.0>
288.566

>  <SCORE.INTRA.norm>
-10.1529

>  <SCORE.RESTR>
0

>  <SCORE.RESTR.CAVITY>
0

>  <SCORE.RESTR.norm>
0

>  <SCORE.SYSTEM>
-3.80246

>  <SCORE.SYSTEM.CONST>
0

>  <SCORE.SYSTEM.DIHEDRAL>
10.2647

>  <SCORE.SYSTEM.POLAR>
-3.45003

>  <SCORE.SYSTEM.REPUL>
0.0128219

>  <SCORE.SYSTEM.VDW>
2.73119

>  <SCORE.SYSTEM.norm>
-0.131119

>  <SCORE.heavy>
29

>  <SCORE.norm>
-10.6122

$$$$
F3222-2124
  rDOCK(R)          3D
libRbt.so/2013.1/901 2013/11/27
 30 32  0  0  0  0  0  0  0  0999 V2000
  -15.2340   16.9164  -16.4906 C   0  0  0  0  0  0
  -15.8400   18.2178  -17.0096 C   0  0  0  0  0  0
  -17.0303   18.4926  -16.2632 O   0  0  0  0  0  0
  -17.7498   19.6109  -16.6087 C   0  0  0  0  0  0
  -17.4676   20.3073  -17.5723 O   0  0  0  0  0  0
  -18.7385   19.8830  -15.5608 C   0  0  0  0  0  0
  -19.7255   19.0781  -14.9465 C   0  0  0  0  0  0
  -20.7609   20.0178  -14.3837 C   0  0  0  0  0  0
  -20.3403   21.3185  -14.3569 C   0  0  0  0  0  0
  -18.8223   21.5282  -15.0116 S   0  0  0  0  0  0
  -22.1217   19.8598  -13.8769 C   0  0  0  0  0  0
  -23.5280   19.2290  -14.7276 C   0  0  0  0  0  0
  -25.2171   19.8229  -14.4633 C   0  0  0  0  0  0
  -25.5608   21.2177  -13.3800 C   0  0  0  0  0  0
  -26.9440   21.6903  -13.1826 C   0  0  0  0  0  0
  -24.1692   21.9625  -12.4680 C   0  0  0  0  0  0
  -22.3697   21.0713  -12.7467 C   0  0  0  0  0  0
  -19.6853   17.2645  -15.2187 S   0  0  0  0  0  0
  -19.1251   16.7910  -13.9699 O   0  0  0  0  0  0
  -21.0737   17.0090  -15.5661 O   0  0  0  0  0  0
  -18.8672   16.3676  -16.4965 N   0  0  0  0  0  0
  -18.7248   14.9168  -16.4950 C   0  0  0  0  0  0
  -18.4099   14.4301  -18.1450 C   0  0  0  0  0  0
  -17.0829   13.3150  -18.4361 C   0  0  0  0  0  0
  -16.9788   12.9157  -19.7622 O   0  0  0  0  0  0
  -16.0965   12.0530  -20.3988 C   0  0  0  0  0  0
  -15.9848   12.6246  -16.8476 C   0  0  0  0  0  0
  -16.5441   13.0739  -15.1823 C   0  0  0  0  0  0
  -17.9167   14.2026  -15.0507 C   0  0  0  0  0  0
  -17.9663   16.8385  -16.6046 H   0  0  0  0  0  0
  1  2  1  0  0  0
  2  3  1  0  0  0
  3  4  1  0  0  0
  4  5  2  0  0  0
  4  6  1  0  0  0
  6  7  2  0  0  0
  6 10  1  0  0  0
  7  8  1  0  0  0
  7 18  1  0  0  0
  8  9  2  0  0  0
  8 11  1  0  0  0
  9 10  1  0  0  0
 11 12  2  0  0  0
 11 17  1  0  0  0
 12 13  1  0  0  0
 13 14  2  0  0  0
 14 15  1  0  0  0
 14 16  1  0  0  0
 16 17  2  0  0  0
 18 19  2  0  0  0
 18 20  2  0  0  0
 18 21  1  0  0  0
 21 22  1  0  0  0
 21 30  1  0  0  0
 22 23  2  0  0  0
 22 29  1  0  0  0
 23 24  1  0  0  0
 24 25  1  0  0  0
 24 27  2  0  0  0
 25 26  1  0  0  0
 27 28  1  0  0  0
 28 29  2  0  0  0
M  END
>  <CHROM.0>
-63.00671304,-74.99786417,-47.12758008,-62.10923366,167.76534630,60.17661609
-36.18848064,-162.71536207

>  <CHROM.1>
-178.13118045,5.42108859,-52.32476857,102.95701462,-59.23622202,169.79981232
159.54409691,-179.34777019,-19.49170772,17.85607912,-15.68516343,-0.83115375
0.30953392,0.26038659

>  <Name>
F3222-2124

>  <RI>
4.33053e+07

>  <Rbt.Current_Directory>
/home/adria/Escritorio/rDock_CMTR_LC/2pxcA_model/inputs_sah

>  <Rbt.Executable>
rbdock ($Id: //depot/dev/client3/rdock/2013.1/src/exe/rbdock.cxx#4 $)

>  <Rbt.Library>
libRbt.so (2013.1, Build901 2013/11/27)

>  <Rbt.Parameter_File>
/home/adria/Escritorio/rDock_2013.1_src/data/scripts/dock.prm

>  <Rbt.Receptor>
sah_rdock.prm

>  <SCORE>
-310.656

>  <SCORE.INTER>
-11.7014

>  <SCORE.INTER.CONST>
1

>  <SCORE.INTER.POLAR>
-1.67315

>  <SCORE.INTER.REPUL>
0.0323409

>  <SCORE.INTER.ROT>
8

>  <SCORE.INTER.VDW>
-19.5744

>  <SCORE.INTER.norm>
-0.403498

>  <SCORE.INTRA>
-296.38

>  <SCORE.INTRA.DIHEDRAL>
-8.46533

>  <SCORE.INTRA.DIHEDRAL.0>
24.2664

>  <SCORE.INTRA.POLAR>
-0.868539

>  <SCORE.INTRA.POLAR.0>
0

>  <SCORE.INTRA.REPUL>
0

>  <SCORE.INTRA.REPUL.0>
0

>  <SCORE.INTRA.VDW>
-289.194

>  <SCORE.INTRA.VDW.0>
288.566

>  <SCORE.INTRA.norm>
-10.22

>  <SCORE.RESTR>
0

>  <SCORE.RESTR.CAVITY>
0

>  <SCORE.RESTR.norm>
0

>  <SCORE.SYSTEM>
-2.57511

>  <SCORE.SYSTEM.CONST>
0

>  <SCORE.SYSTEM.DIHEDRAL>
3.87883

>  <SCORE.SYSTEM.POLAR>
-3.99169

>  <SCORE.SYSTEM.REPUL>
0.0419064

>  <SCORE.SYSTEM.VDW>
8.8477

>  <SCORE.SYSTEM.norm>
-0.088797

>  <SCORE.heavy>
29

>  <SCORE.norm>
-10.7123

$$$$
F3222-2124
  rDOCK(R)          3D
libRbt.so/2013.1/901 2013/11/27
 30 32  0  0  0  0  0  0  0  0999 V2000
  -17.2835   16.6503  -17.7904 C   0  0  0  0  0  0
  -18.5239   16.6521  -16.9006 C   0  0  0  0  0  0
  -18.5901   17.9087  -16.2180 O   0  0  0  0  0  0
  -19.6221   18.0929  -15.3300 C   0  0  0  0  0  0
  -20.4976   17.2594  -15.1514 O   0  0  0  0  0  0
  -19.5666   19.4641  -14.8139 C   0  0  0  0  0  0
  -20.1499   20.0842  -13.6850 C   0  0  0  0  0  0
  -20.2019   21.5611  -13.9815 C   0  0  0  0  0  0
  -19.4449   21.9133  -15.0642 C   0  0  0  0  0  0
  -18.7184   20.6097  -15.8057 S   0  0  0  0  0  0
  -20.8931   22.7026  -13.3875 C   0  0  0  0  0  0
  -20.2046   24.0021  -12.4197 C   0  0  0  0  0  0
  -21.0749   24.8146  -11.0566 C   0  0  0  0  0  0
  -22.6913   24.2471  -10.5068 C   0  0  0  0  0  0
  -23.3814   24.9192   -9.3897 C   0  0  0  0  0  0
  -23.4849   22.8879  -11.4262 C   0  0  0  0  0  0
  -22.4516   22.2026  -13.0302 C   0  0  0  0  0  0
  -20.9130   19.0313  -12.3912 S   0  0  0  0  0  0
  -20.2274   17.7717  -12.5934 O   0  0  0  0  0  0
  -20.6730   19.8374  -11.2054 O   0  0  0  0  0  0
  -22.6156   18.6343  -12.1670 N   0  0  0  0  0  0
  -23.6122   19.5973  -11.7145 C   0  0  0  0  0  0
  -24.7826   19.7686  -13.0027 C   0  0  0  0  0  0
  -26.4873   19.6833  -12.5836 C   0  0  0  0  0  0
  -27.3325   19.9285  -13.6581 O   0  0  0  0  0  0
  -27.0883   20.0148  -15.0222 C   0  0  0  0  0  0
  -27.0271   19.4091  -10.6242 C   0  0  0  0  0  0
  -25.7086   19.4317   -9.3795 C   0  0  0  0  0  0
  -24.0280   19.5411   -9.9615 C   0  0  0  0  0  0
  -22.6089   17.7925  -11.5871 H   0  0  0  0  0  0
  1  2  1  0  0  0
  2  3  1  0  0  0
  3  4  1  0  0  0
  4  5  2  0  0  0
  4  6  1  0  0  0
  6  7  2  0  0  0
  6 10  1  0  0  0
  7  8  1  0  0  0
  7 18  1  0  0  0
  8  9  2  0  0  0
  8 11  1  0  0  0
  9 10  1  0  0  0
 11 12  2  0  0  0
 11 17  1  0  0  0
 12 13  1  0  0  0
 13 14  2  0  0  0
 14 15  1  0  0  0
 14 16  1  0  0  0
 16 17  2  0  0  0
 18 19  2  0  0  0
 18 20  2  0  0  0
 18 21  1  0  0  0
 21 22  1  0  0  0
 21 30  1  0  0  0
 22 23  2  0  0  0
 22 29  1  0  0  0
 23 24  1  0  0  0
 24 25  1  0  0  0
 24 27  2  0  0  0
 25 26  1  0  0  0
 27 28  1  0  0  0
 28 29  2  0  0  0
M  END
>  <CHROM.0>
-60.58806416,-165.50939773,75.23011845,60.19645474,-31.39402935,-58.71023254
-36.71652635,-161.84970176

>  <CHROM.1>
-178.04024362,-3.17369700,-162.61779308,23.41496093,107.58807244,-70.53432226
117.54823023,11.84028813,-21.77627745,20.17246583,-13.23593989,0.63960822
-0.38678066,-2.61123315

>  <Name>
F3222-2124

>  <RI>
4.33053e+07

>  <Rbt.Current_Directory>
/home/adria/Escritorio/rDock_CMTR_LC/2pxcA_model/inputs_sah

>  <Rbt.Executable>
rbdock ($Id: //depot/dev/client3/rdock/2013.1/src/exe/rbdock.cxx#4 $)

>  <Rbt.Library>
libRbt.so (2013.1, Build901 2013/11/27)

>  <Rbt.Parameter_File>
/home/adria/Escritorio/rDock_2013.1_src/data/scripts/dock.prm

>  <Rbt.Receptor>
sah_rdock.prm

>  <SCORE>
-306.989

>  <SCORE.INTER>
-3.70584

>  <SCORE.INTER.CONST>
1

>  <SCORE.INTER.POLAR>
-0.772758

>  <SCORE.INTER.REPUL>
0

>  <SCORE.INTER.ROT>
8

>  <SCORE.INTER.VDW>
-14.4785

>  <SCORE.INTER.norm>
-0.127788

>  <SCORE.INTRA>
-296.859

>  <SCORE.INTRA.DIHEDRAL>
-11.8645

>  <SCORE.INTRA.DIHEDRAL.0>
24.2664

>  <SCORE.INTRA.POLAR>
0

>  <SCORE.INTRA.POLAR.0>
0

>  <SCORE.INTRA.REPUL>
0

>  <SCORE.INTRA.REPUL.0>
0

>  <SCORE.INTRA.VDW>
-290.926

>  <SCORE.INTRA.VDW.0>
288.566

>  <SCORE.INTRA.norm>
-10.2365

>  <SCORE.RESTR>
0.0736472

>  <SCORE.RESTR.CAVITY>
0.0736472

>  <SCORE.RESTR.norm>
0.00253956

>  <SCORE.SYSTEM>
-6.49832

>  <SCORE.SYSTEM.CONST>
0

>  <SCORE.SYSTEM.DIHEDRAL>
6.51943

>  <SCORE.SYSTEM.POLAR>
-3.7616

>  <SCORE.SYSTEM.VDW>
3.03141

>  <SCORE.SYSTEM.norm>
-0.22408

>  <SCORE.heavy>
29

>  <SCORE.norm>
-10.5858

$$$$
F3222-2124
  rDOCK(R)          3D
libRbt.so/2013.1/901 2013/11/27
 30 32  0  0  0  0  0  0  0  0999 V2000
  -18.1841   24.9317   -9.8595 C   0  0  0  0  0  0
  -19.3100   25.7461  -10.4914 C   0  0  0  0  0  0
  -20.3167   24.8415  -10.9579 O   0  0  0  0  0  0
  -21.4345   25.3857  -11.5427 C   0  0  0  0  0  0
  -21.5314   26.5754  -11.8044 O   0  0  0  0  0  0
  -22.4801   24.3604  -11.6160 C   0  0  0  0  0  0
  -22.4968   23.0492  -12.1450 C   0  0  0  0  0  0
  -23.9388   22.7172  -12.4317 C   0  0  0  0  0  0
  -24.8120   23.5998  -11.8592 C   0  0  0  0  0  0
  -24.0500   24.8424  -11.0517 S   0  0  0  0  0  0
  -24.6185   21.6767  -13.1994 C   0  0  0  0  0  0
  -23.9949   20.1014  -13.6776 C   0  0  0  0  0  0
  -24.4195   19.2781  -15.2325 C   0  0  0  0  0  0
  -25.4311   20.0925  -16.4777 C   0  0  0  0  0  0
  -25.7609   19.4066  -17.7412 C   0  0  0  0  0  0
  -26.1087   21.7404  -16.0931 C   0  0  0  0  0  0
  -25.6783   22.4480  -14.2427 C   0  0  0  0  0  0
  -20.9065   22.2584  -12.6036 S   0  0  0  0  0  0
  -20.2728   23.3009  -13.3841 O   0  0  0  0  0  0
  -20.3990   21.8845  -11.2936 O   0  0  0  0  0  0
  -20.6464   20.7554  -13.4867 N   0  0  0  0  0  0
  -19.3290   20.2770  -13.8876 C   0  0  0  0  0  0
  -19.3493   18.5343  -13.7415 C   0  0  0  0  0  0
  -18.7316   17.5875  -15.0872 C   0  0  0  0  0  0
  -18.7004   16.2225  -14.8330 O   0  0  0  0  0  0
  -18.2959   15.1481  -15.6140 C   0  0  0  0  0  0
  -18.0042   18.5530  -16.7440 C   0  0  0  0  0  0
  -17.8800   20.3607  -16.6748 C   0  0  0  0  0  0
  -18.5361   21.1770  -15.2331 C   0  0  0  0  0  0
  -21.2897   20.8087  -14.2794 H   0  0  0  0  0  0
  1  2  1  0  0  0
  2  3  1  0  0  0
  3  4  1  0  0  0
  4  5  2  0  0  0
  4  6  1  0  0  0
  6  7  2  0  0  0
  6 10  1  0  0  0
  7  8  1  0  0  0
  7 18  1  0  0  0
  8  9  2  0  0  0
  8 11  1  0  0  0
  9 10  1  0  0  0
 11 12  2  0  0  0
 11 17  1  0  0  0
 12 13  1  0  0  0
 13 14  2  0  0  0
 14 15  1  0  0  0
 14 16  1  0  0  0
 16 17  2  0  0  0
 18 19  2  0  0  0
 18 20  2  0  0  0
 18 21  1  0  0  0
 21 22  1  0  0  0
 21 30  1  0  0  0
 22 23  2  0  0  0
 22 29  1  0  0  0
 23 24  1  0  0  0
 24 25  1  0  0  0
 24 27  2  0  0  0
 25 26  1  0  0  0
 27 28  1  0  0  0
 28 29  2  0  0  0
M  END
>  <CHROM.0>
38.93766162,65.82481418,-41.80205793,145.20130790,168.19242197,-58.11255368
-37.48785436,-48.78081105

>  <CHROM.1>
178.89163362,8.07127062,-53.21272356,-48.37023566,21.57869662,174.92137293
143.87778863,179.78323884,-21.57362502,21.79470985,-13.37298801,-1.85904666
0.20899428,-2.52430213

>  <Name>
F3222-2124

>  <RI>
4.33053e+07

>  <Rbt.Current_Directory>
/home/adria/Escritorio/rDock_CMTR_LC/2pxcA_model/inputs_sah

>  <Rbt.Executable>
rbdock ($Id: //depot/dev/client3/rdock/2013.1/src/exe/rbdock.cxx#4 $)

>  <Rbt.Library>
libRbt.so (2013.1, Build901 2013/11/27)

>  <Rbt.Parameter_File>
/home/adria/Escritorio/rDock_2013.1_src/data/scripts/dock.prm

>  <Rbt.Receptor>
sah_rdock.prm

>  <SCORE>
-304.055

>  <SCORE.INTER>
-15.2248

>  <SCORE.INTER.CONST>
1

>  <SCORE.INTER.POLAR>
-1.43533

>  <SCORE.INTER.REPUL>
0

>  <SCORE.INTER.ROT>
8

>  <SCORE.INTER.VDW>
-23.7446

>  <SCORE.INTER.norm>
-0.524992

>  <SCORE.INTRA>
-296.436

>  <SCORE.INTRA.DIHEDRAL>
-10.0959

>  <SCORE.INTRA.DIHEDRAL.0>
24.2664

>  <SCORE.INTRA.POLAR>
0

>  <SCORE.INTRA.POLAR.0>
0

>  <SCORE.INTRA.REPUL>
0

>  <SCORE.INTRA.REPUL.0>
0

>  <SCORE.INTRA.VDW>
-291.388

>  <SCORE.INTRA.VDW.0>
288.566

>  <SCORE.INTRA.norm>
-10.2219

>  <SCORE.RESTR>
0

>  <SCORE.RESTR.CAVITY>
0

>  <SCORE.RESTR.norm>
0

>  <SCORE.SYSTEM>
7.60547

>  <SCORE.SYSTEM.CONST>
0

>  <SCORE.SYSTEM.DIHEDRAL>
11.8957

>  <SCORE.SYSTEM.POLAR>
-3.16659

>  <SCORE.SYSTEM.REPUL>
0.141463

>  <SCORE.SYSTEM.VDW>
11.7167

>  <SCORE.SYSTEM.norm>
0.262258

>  <SCORE.heavy>
29

>  <SCORE.norm>
-10.4847

$$$$
F3222-2124
  rDOCK(R)          3D
libRbt.so/2013.1/901 2013/11/27
 30 32  0  0  0  0  0  0  0  0999 V2000
  -18.5012   17.3034  -17.3899 C   0  0  0  0  0  0
  -19.5441   16.4140  -16.7178 C   0  0  0  0  0  0
  -20.3146   17.2190  -15.8191 O   0  0  0  0  0  0
  -19.8904   17.2938  -14.5145 C   0  0  0  0  0  0
  -19.1022   16.4963  -14.0285 O   0  0  0  0  0  0
  -20.6570   18.3355  -13.8239 C   0  0  0  0  0  0
  -20.3440   19.6629  -13.4508 C   0  0  0  0  0  0
  -21.2723   20.0243  -12.3196 C   0  0  0  0  0  0
  -22.3012   19.1363  -12.1713 C   0  0  0  0  0  0
  -22.2201   17.8580  -13.2373 S   0  0  0  0  0  0
  -21.3137   21.0981  -11.3302 C   0  0  0  0  0  0
  -22.7302   21.8260  -10.5801 C   0  0  0  0  0  0
  -22.8408   23.5718  -10.1157 C   0  0  0  0  0  0
  -21.5257   24.7326  -10.5158 C   0  0  0  0  0  0
  -21.6378   26.1529  -10.1337 C   0  0  0  0  0  0
  -20.0215   24.0862  -11.3172 C   0  0  0  0  0  0
  -19.9874   22.0812  -11.6153 C   0  0  0  0  0  0
  -18.8358   20.4454  -14.1420 S   0  0  0  0  0  0
  -19.2948   21.7947  -14.3994 O   0  0  0  0  0  0
  -17.8745   20.1652  -13.0880 O   0  0  0  0  0  0
  -17.9043   19.9639  -15.5586 N   0  0  0  0  0  0
  -16.4862   19.6294  -15.5119 C   0  0  0  0  0  0
  -16.3679   17.8854  -15.5688 C   0  0  0  0  0  0
  -15.2248   17.1737  -16.6983 C   0  0  0  0  0  0
  -15.1366   15.7913  -16.5964 O   0  0  0  0  0  0
  -16.0619   14.8352  -16.1993 C   0  0  0  0  0  0
  -14.0781   18.4018  -17.8741 C   0  0  0  0  0  0
  -14.1809   20.1870  -17.5734 C   0  0  0  0  0  0
  -15.3788   20.7542  -16.3824 C   0  0  0  0  0  0
  -18.1023   20.6865  -16.2540 H   0  0  0  0  0  0
  1  2  1  0  0  0
  2  3  1  0  0  0
  3  4  1  0  0  0
  4  5  2  0  0  0
  4  6  1  0  0  0
  6  7  2  0  0  0
  6 10  1  0  0  0
  7  8  1  0  0  0
  7 18  1  0  0  0
  8  9  2  0  0  0
  8 11  1  0  0  0
  9 10  1  0  0  0
 11 12  2  0  0  0
 11 17  1  0  0  0
 12 13  1  0  0  0
 13 14  2  0  0  0
 14 15  1  0  0  0
 14 16  1  0  0  0
 16 17  2  0  0  0
 18 19  2  0  0  0
 18 20  2  0  0  0
 18 21  1  0  0  0
 21 22  1  0  0  0
 21 30  1  0  0  0
 22 23  2  0  0  0
 22 29  1  0  0  0
 23 24  1  0  0  0
 24 25  1  0  0  0
 24 27  2  0  0  0
 25 26  1  0  0  0
 27 28  1  0  0  0
 28 29  2  0  0  0
M  END
>  <CHROM.0>
178.85098550,-70.39971623,-45.27123163,-59.55906398,168.02246757,-57.37952274
-157.14269643,-169.29158306

>  <CHROM.1>
-92.01751732,-17.01260532,-102.48808219,140.25879267,149.25343586,-122.11500008
102.49260589,28.67345401,-19.09499377,19.56407837,-14.11261366,0.86423514
-0.50663501,-2.75069773

>  <Name>
F3222-2124

>  <RI>
4.33053e+07

>  <Rbt.Current_Directory>
/home/adria/Escritorio/rDock_CMTR_LC/2pxcA_model/inputs_sah

>  <Rbt.Executable>
rbdock ($Id: //depot/dev/client3/rdock/2013.1/src/exe/rbdock.cxx#4 $)

>  <Rbt.Library>
libRbt.so (2013.1, Build901 2013/11/27)

>  <Rbt.Parameter_File>
/home/adria/Escritorio/rDock_2013.1_src/data/scripts/dock.prm

>  <Rbt.Receptor>
sah_rdock.prm

>  <SCORE>
-306.186

>  <SCORE.INTER>
-12.4275

>  <SCORE.INTER.CONST>
1

>  <SCORE.INTER.POLAR>
-0.787681

>  <SCORE.INTER.REPUL>
0.0571043

>  <SCORE.INTER.ROT>
8

>  <SCORE.INTER.VDW>
-23.4349

>  <SCORE.INTER.norm>
-0.428535

>  <SCORE.INTRA>
-291.631

>  <SCORE.INTRA.DIHEDRAL>
-1.88099

>  <SCORE.INTRA.DIHEDRAL.0>
24.2664

>  <SCORE.INTRA.POLAR>
0

>  <SCORE.INTRA.POLAR.0>
0

>  <SCORE.INTRA.REPUL>
0

>  <SCORE.INTRA.REPUL.0>
0

>  <SCORE.INTRA.VDW>
-290.69

>  <SCORE.INTRA.VDW.0>
288.566

>  <SCORE.INTRA.norm>
-10.0562

>  <SCORE.RESTR>
0

>  <SCORE.RESTR.CAVITY>
0

>  <SCORE.RESTR.norm>
0

>  <SCORE.SYSTEM>
-2.12732

>  <SCORE.SYSTEM.CONST>
0

>  <SCORE.SYSTEM.DIHEDRAL>
3.04749

>  <SCORE.SYSTEM.POLAR>
-3.86671

>  <SCORE.SYSTEM.REPUL>
0.0335652

>  <SCORE.SYSTEM.VDW>
9.32791

>  <SCORE.SYSTEM.norm>
-0.0733558

>  <SCORE.heavy>
29

>  <SCORE.norm>
-10.5581

$$$$
F3222-2124
  rDOCK(R)          3D
libRbt.so/2013.1/901 2013/11/27
 30 32  0  0  0  0  0  0  0  0999 V2000
  -14.8600   17.4856  -17.7811 C   0  0  0  0  0  0
  -16.3802   17.3491  -17.8056 C   0  0  0  0  0  0
  -16.9340   18.2830  -16.8725 O   0  0  0  0  0  0
  -18.2079   18.0430  -16.4175 C   0  0  0  0  0  0
  -18.8901   17.1130  -16.8211 O   0  0  0  0  0  0
  -18.6202   19.1513  -15.5506 C   0  0  0  0  0  0
  -19.5894   19.2532  -14.5262 C   0  0  0  0  0  0
  -19.9370   20.7147  -14.4038 C   0  0  0  0  0  0
  -19.0585   21.5277  -15.0645 C   0  0  0  0  0  0
  -17.8756   20.6848  -15.8813 S   0  0  0  0  0  0
  -21.0115   21.4625  -13.7556 C   0  0  0  0  0  0
  -21.1332   23.2034  -13.5244 C   0  0  0  0  0  0
  -21.8987   23.9780  -12.0788 C   0  0  0  0  0  0
  -22.4860   22.9954  -10.6907 C   0  0  0  0  0  0
  -23.1017   23.6465   -9.5190 C   0  0  0  0  0  0
  -22.3838   21.1798  -10.8170 C   0  0  0  0  0  0
  -21.6570   20.4691  -12.5710 C   0  0  0  0  0  0
  -20.3485   17.7182  -13.8687 S   0  0  0  0  0  0
  -21.0924   17.2418  -15.0164 O   0  0  0  0  0  0
  -19.1704   17.0138  -13.3895 O   0  0  0  0  0  0
  -21.4167   17.5341  -12.4789 N   0  0  0  0  0  0
  -22.8684   17.6389  -12.5621 C   0  0  0  0  0  0
  -23.4535   17.9586  -10.9453 C   0  0  0  0  0  0
  -24.6162   19.2593  -10.7321 C   0  0  0  0  0  0
  -25.0909   19.3672   -9.4313 O   0  0  0  0  0  0
  -24.6260   18.8407   -8.2336 C   0  0  0  0  0  0
  -25.2451   20.3222  -12.3694 C   0  0  0  0  0  0
  -24.6902   19.7571  -14.0005 C   0  0  0  0  0  0
  -23.5216   18.4129  -14.0532 C   0  0  0  0  0  0
  -21.0294   18.1630  -11.7722 H   0  0  0  0  0  0
  1  2  1  0  0  0
  2  3  1  0  0  0
  3  4  1  0  0  0
  4  5  2  0  0  0
  4  6  1  0  0  0
  6  7  2  0  0  0
  6 10  1  0  0  0
  7  8  1  0  0  0
  7 18  1  0  0  0
  8  9  2  0  0  0
  8 11  1  0  0  0
  9 10  1  0  0  0
 11 12  2  0  0  0
 11 17  1  0  0  0
 12 13  1  0  0  0
 13 14  2  0  0  0
 14 15  1  0  0  0
 14 16  1  0  0  0
 16 17  2  0  0  0
 18 19  2  0  0  0
 18 20  2  0  0  0
 18 21  1  0  0  0
 21 22  1  0  0  0
 21 30  1  0  0  0
 22 23  2  0  0  0
 22 29  1  0  0  0
 23 24  1  0  0  0
 24 25  1  0  0  0
 24 27  2  0  0  0
 25 26  1  0  0  0
 27 28  1  0  0  0
 28 29  2  0  0  0
M  END
>  <CHROM.0>
-61.07582885,73.87655131,-165.36005861,-61.74711633,-30.90495151,-54.26727849
-156.67940136,-164.97066494

>  <CHROM.1>
-159.36221724,-3.37166310,-157.38341148,-66.32606200,170.41714557,89.06765424
-160.26811154,15.51714136,-20.83197834,19.46691928,-13.61797010,0.37398863
-0.69803188,-2.95028279

>  <Name>
F3222-2124

>  <RI>
4.33053e+07

>  <Rbt.Current_Directory>
/home/adria/Escritorio/rDock_CMTR_LC/2pxcA_model/inputs_sah

>  <Rbt.Executable>
rbdock ($Id: //depot/dev/client3/rdock/2013.1/src/exe/rbdock.cxx#4 $)

>  <Rbt.Library>
libRbt.so (2013.1, Build901 2013/11/27)

>  <Rbt.Parameter_File>
/home/adria/Escritorio/rDock_2013.1_src/data/scripts/dock.prm

>  <Rbt.Receptor>
sah_rdock.prm

>  <SCORE>
-316.346

>  <SCORE.INTER>
-10.0139

>  <SCORE.INTER.CONST>
1

>  <SCORE.INTER.POLAR>
-0.824621

>  <SCORE.INTER.REPUL>
0.00928092

>  <SCORE.INTER.ROT>
8

>  <SCORE.INTER.VDW>
-20.6566

>  <SCORE.INTER.norm>
-0.345308

>  <SCORE.INTRA>
-299.547

>  <SCORE.INTRA.DIHEDRAL>
-16.2634

>  <SCORE.INTRA.DIHEDRAL.0>
24.2664

>  <SCORE.INTRA.POLAR>
0

>  <SCORE.INTRA.POLAR.0>
0

>  <SCORE.INTRA.REPUL>
0

>  <SCORE.INTRA.REPUL.0>
0

>  <SCORE.INTRA.VDW>
-291.415

>  <SCORE.INTRA.VDW.0>
288.566

>  <SCORE.INTRA.norm>
-10.3292

>  <SCORE.RESTR>
0.00361313

>  <SCORE.RESTR.CAVITY>
0.00361313

>  <SCORE.RESTR.norm>
0.000124591

>  <SCORE.SYSTEM>
-6.78876

>  <SCORE.SYSTEM.CONST>
0

>  <SCORE.SYSTEM.DIHEDRAL>
6.44957

>  <SCORE.SYSTEM.POLAR>
-3.70953

>  <SCORE.SYSTEM.VDW>
2.59885

>  <SCORE.SYSTEM.norm>
-0.234095

>  <SCORE.heavy>
29

>  <SCORE.norm>
-10.9085

$$$$
F3222-2124
  rDOCK(R)          3D
libRbt.so/2013.1/901 2013/11/27
 30 32  0  0  0  0  0  0  0  0999 V2000
  -14.9261   17.8967  -17.8370 C   0  0  0  0  0  0
  -15.5541   19.1189  -17.1721 C   0  0  0  0  0  0
  -16.8730   18.7707  -16.7377 O   0  0  0  0  0  0
  -17.5980   19.7350  -16.0804 C   0  0  0  0  0  0
  -17.1490   20.8433  -15.8289 O   0  0  0  0  0  0
  -18.8584   19.1480  -15.6149 C   0  0  0  0  0  0
  -19.6495   19.3729  -14.4648 C   0  0  0  0  0  0
  -20.4790   18.1310  -14.2612 C   0  0  0  0  0  0
  -20.4644   17.2978  -15.3450 C   0  0  0  0  0  0
  -19.4839   17.8445  -16.5766 S   0  0  0  0  0  0
  -21.2814   17.6028  -13.1607 C   0  0  0  0  0  0
  -22.7218   16.5952  -13.2567 C   0  0  0  0  0  0
  -24.1019   16.6945  -12.0900 C   0  0  0  0  0  0
  -24.1492   17.9474  -10.7996 C   0  0  0  0  0  0
  -25.2862   18.0154   -9.8624 C   0  0  0  0  0  0
  -22.7162   19.0609  -10.6282 C   0  0  0  0  0  0
  -21.1816   18.7071  -11.9048 C   0  0  0  0  0  0
  -19.2958   20.8374  -13.4185 S   0  0  0  0  0  0
  -17.9763   20.5250  -12.9098 O   0  0  0  0  0  0
  -19.4988   21.9130  -14.3754 O   0  0  0  0  0  0
  -20.2186   21.4520  -12.0483 N   0  0  0  0  0  0
  -20.7554   22.8058  -11.9837 C   0  0  0  0  0  0
  -22.4945   22.6635  -11.8668 C   0  0  0  0  0  0
  -23.3181   23.6126  -10.6380 C   0  0  0  0  0  0
  -24.7016   23.5040  -10.6924 O   0  0  0  0  0  0
  -25.7043   24.1164   -9.9525 C   0  0  0  0  0  0
  -22.2221   24.8462   -9.4202 C   0  0  0  0  0  0
  -20.4540   25.0259   -9.7802 C   0  0  0  0  0  0
  -19.7680   24.0056  -11.0700 C   0  0  0  0  0  0
  -19.6444   21.2307  -11.2320 H   0  0  0  0  0  0
  1  2  1  0  0  0
  2  3  1  0  0  0
  3  4  1  0  0  0
  4  5  2  0  0  0
  4  6  1  0  0  0
  6  7  2  0  0  0
  6 10  1  0  0  0
  7  8  1  0  0  0
  7 18  1  0  0  0
  8  9  2  0  0  0
  8 11  1  0  0  0
  9 10  1  0  0  0
 11 12  2  0  0  0
 11 17  1  0  0  0
 12 13  1  0  0  0
 13 14  2  0  0  0
 14 15  1  0  0  0
 14 16  1  0  0  0
 16 17  2  0  0  0
 18 19  2  0  0  0
 18 20  2  0  0  0
 18 21  1  0  0  0
 21 22  1  0  0  0
 21 30  1  0  0  0
 22 23  2  0  0  0
 22 29  1  0  0  0
 23 24  1  0  0  0
 24 25  1  0  0  0
 24 27  2  0  0  0
 25 26  1  0  0  0
 27 28  1  0  0  0
 28 29  2  0  0  0
M  END
>  <CHROM.0>
-61.06072846,-167.33510939,74.81252241,61.45977845,-29.70691618,62.37254725
-158.42099871,-167.36086824

>  <CHROM.1>
178.45819701,-1.99516096,145.80256630,-65.39763753,149.26565277,-122.72128043
118.64633756,-177.21979877,-20.49225020,20.23238814,-13.28847994,-0.67548347
0.58395977,0.41990539

>  <Name>
F3222-2124

>  <RI>
4.33053e+07

>  <Rbt.Current_Directory>
/home/adria/Escritorio/rDock_CMTR_LC/2pxcA_model/inputs_sah

>  <Rbt.Executable>
rbdock ($Id: //depot/dev/client3/rdock/2013.1/src/exe/rbdock.cxx#4 $)

>  <Rbt.Library>
libRbt.so (2013.1, Build901 2013/11/27)

>  <Rbt.Parameter_File>
/home/adria/Escritorio/rDock_2013.1_src/data/scripts/dock.prm

>  <Rbt.Receptor>
sah_rdock.prm

>  <SCORE>
-319.224

>  <SCORE.INTER>
-12.8592

>  <SCORE.INTER.CONST>
1

>  <SCORE.INTER.POLAR>
-0.0023068

>  <SCORE.INTER.REPUL>
0

>  <SCORE.INTER.ROT>
8

>  <SCORE.INTER.VDW>
-26.2513

>  <SCORE.INTER.norm>
-0.44342

>  <SCORE.INTRA>
-299.685

>  <SCORE.INTRA.DIHEDRAL>
-16.4978

>  <SCORE.INTRA.DIHEDRAL.0>
24.2664

>  <SCORE.INTRA.POLAR>
0

>  <SCORE.INTRA.POLAR.0>
0

>  <SCORE.INTRA.REPUL>
0

>  <SCORE.INTRA.REPUL.0>
0

>  <SCORE.INTRA.VDW>
-291.436

>  <SCORE.INTRA.VDW.0>
288.566

>  <SCORE.INTRA.norm>
-10.334

>  <SCORE.RESTR>
0

>  <SCORE.RESTR.CAVITY>
0

>  <SCORE.RESTR.norm>
0

>  <SCORE.SYSTEM>
-6.67985

>  <SCORE.SYSTEM.CONST>
0

>  <SCORE.SYSTEM.DIHEDRAL>
6.22452

>  <SCORE.SYSTEM.POLAR>
-3.75691

>  <SCORE.SYSTEM.VDW>
2.9814

>  <SCORE.SYSTEM.norm>
-0.23034

>  <SCORE.heavy>
29

>  <SCORE.norm>
-11.0077

$$$$
F3222-2124
  rDOCK(R)          3D
libRbt.so/2013.1/901 2013/11/27
 30 32  0  0  0  0  0  0  0  0999 V2000
  -14.5597   19.1263  -17.7681 C   0  0  0  0  0  0
  -14.8869   17.9471  -16.8555 C   0  0  0  0  0  0
  -16.3028   17.9156  -16.6461 O   0  0  0  0  0  0
  -16.8486   18.9031  -15.8622 C   0  0  0  0  0  0
  -16.1744   19.7676  -15.3226 O   0  0  0  0  0  0
  -18.2749   18.6234  -15.6692 C   0  0  0  0  0  0
  -19.2686   19.2346  -14.8702 C   0  0  0  0  0  0
  -20.3488   18.2045  -14.6607 C   0  0  0  0  0  0
  -20.2270   17.1285  -15.4955 C   0  0  0  0  0  0
  -18.8827   17.2114  -16.4767 S   0  0  0  0  0  0
  -21.4878   18.0827  -13.7543 C   0  0  0  0  0  0
  -22.4345   16.6436  -13.3915 C   0  0  0  0  0  0
  -24.2096   16.6662  -13.0388 C   0  0  0  0  0  0
  -25.1701   18.1824  -13.1639 C   0  0  0  0  0  0
  -26.6172   18.1785  -12.8781 C   0  0  0  0  0  0
  -24.2897   19.7289  -13.5592 C   0  0  0  0  0  0
  -22.2793   19.5593  -13.7577 C   0  0  0  0  0  0
  -18.9082   20.8578  -14.0957 S   0  0  0  0  0  0
  -18.0074   20.4811  -13.0260 O   0  0  0  0  0  0
  -18.4375   21.6116  -15.2462 O   0  0  0  0  0  0
  -20.0420   22.0140  -13.3998 N   0  0  0  0  0  0
  -20.3524   22.0778  -11.9768 C   0  0  0  0  0  0
  -20.8171   23.7270  -11.6261 C   0  0  0  0  0  0
  -22.2797   23.9889  -10.6874 C   0  0  0  0  0  0
  -22.5066   25.3243  -10.3806 O   0  0  0  0  0  0
  -21.6409   26.3458  -10.0130 C   0  0  0  0  0  0
  -23.3568   22.3705  -10.0343 C   0  0  0  0  0  0
  -22.6533   20.7238  -10.3193 C   0  0  0  0  0  0
  -21.1531   20.6230  -11.2757 C   0  0  0  0  0  0
  -20.8856   21.9214  -13.9697 H   0  0  0  0  0  0
  1  2  1  0  0  0
  2  3  1  0  0  0
  3  4  1  0  0  0
  4  5  2  0  0  0
  4  6  1  0  0  0
  6  7  2  0  0  0
  6 10  1  0  0  0
  7  8  1  0  0  0
  7 18  1  0  0  0
  8  9  2  0  0  0
  8 11  1  0  0  0
  9 10  1  0  0  0
 11 12  2  0  0  0
 11 17  1  0  0  0
 12 13  1  0  0  0
 13 14  2  0  0  0
 14 15  1  0  0  0
 14 16  1  0  0  0
 16 17  2  0  0  0
 18 19  2  0  0  0
 18 20  2  0  0  0
 18 21  1  0  0  0
 21 22  1  0  0  0
 21 30  1  0  0  0
 22 23  2  0  0  0
 22 29  1  0  0  0
 23 24  1  0  0  0
 24 25  1  0  0  0
 24 27  2  0  0  0
 25 26  1  0  0  0
 27 28  1  0  0  0
 28 29  2  0  0  0
M  END
>  <CHROM.0>
175.44691720,-73.11051616,80.10973650,-58.17644607,-31.59276073,59.57801011
-35.93104682,-47.63160500

>  <CHROM.1>
-70.95414831,-1.89239870,173.60417829,-74.39264497,-164.43338344,95.87351214
152.39395022,-39.22880128,-20.21192590,20.01540152,-13.79563414,-0.72787247
0.39281767,0.51518196

>  <Name>
F3222-2124

>  <RI>
4.33053e+07

>  <Rbt.Current_Directory>
/home/adria/Escritorio/rDock_CMTR_LC/2pxcA_model/inputs_sah

>  <Rbt.Executable>
rbdock ($Id: //depot/dev/client3/rdock/2013.1/src/exe/rbdock.cxx#4 $)

>  <Rbt.Library>
libRbt.so (2013.1, Build901 2013/11/27)

>  <Rbt.Parameter_File>
/home/adria/Escritorio/rDock_2013.1_src/data/scripts/dock.prm

>  <Rbt.Receptor>
sah_rdock.prm

>  <SCORE>
-313.006

>  <SCORE.INTER>
-10.8145

>  <SCORE.INTER.CONST>
1

>  <SCORE.INTER.POLAR>
-0.691092

>  <SCORE.INTER.REPUL>
0

>  <SCORE.INTER.ROT>
8

>  <SCORE.INTER.VDW>
-21.8648

>  <SCORE.INTER.norm>
-0.372914

>  <SCORE.INTRA>
-297.358

>  <SCORE.INTRA.DIHEDRAL>
-14.8832

>  <SCORE.INTRA.DIHEDRAL.0>
24.2664

>  <SCORE.INTRA.POLAR>
0

>  <SCORE.INTRA.POLAR.0>
0

>  <SCORE.INTRA.REPUL>
0

>  <SCORE.INTRA.REPUL.0>
0

>  <SCORE.INTRA.VDW>
-289.916

>  <SCORE.INTRA.VDW.0>
288.566

>  <SCORE.INTRA.norm>
-10.2537

>  <SCORE.RESTR>
0.0069596

>  <SCORE.RESTR.CAVITY>
0.0069596

>  <SCORE.RESTR.norm>
0.000239986

>  <SCORE.SYSTEM>
-4.84048

>  <SCORE.SYSTEM.CONST>
0

>  <SCORE.SYSTEM.DIHEDRAL>
9.0111

>  <SCORE.SYSTEM.POLAR>
-3.70117

>  <SCORE.SYSTEM.REPUL>
0.0565429

>  <SCORE.SYSTEM.VDW>
2.95524

>  <SCORE.SYSTEM.norm>
-0.166913

>  <SCORE.heavy>
29

>  <SCORE.norm>
-10.7933

$$$$
F3222-2124
  rDOCK(R)          3D
libRbt.so/2013.1/901 2013/11/27
 30 32  0  0  0  0  0  0  0  0999 V2000
  -21.7560   22.1580  -12.8849 C   0  0  0  0  0  0
  -20.3912   22.7004  -13.3010 C   0  0  0  0  0  0
  -19.8173   21.7999  -14.2546 O   0  0  0  0  0  0
  -19.3660   20.5887  -13.7892 C   0  0  0  0  0  0
  -19.3073   20.3177  -12.5991 O   0  0  0  0  0  0
  -18.8367   19.8135  -14.9155 C   0  0  0  0  0  0
  -18.9917   18.4622  -15.3018 C   0  0  0  0  0  0
  -17.8086   18.1228  -16.1718 C   0  0  0  0  0  0
  -17.1089   19.2269  -16.5728 C   0  0  0  0  0  0
  -17.7111   20.6469  -15.9421 S   0  0  0  0  0  0
  -17.2250   16.8798  -16.6700 C   0  0  0  0  0  0
  -16.0051   16.6820  -17.9237 C   0  0  0  0  0  0
  -15.9559   15.2836  -19.0717 C   0  0  0  0  0  0
  -17.2558   14.0398  -19.0889 C   0  0  0  0  0  0
  -17.2003   12.9109  -20.0367 C   0  0  0  0  0  0
  -18.5833   14.1649  -17.8459 C   0  0  0  0  0  0
  -18.3989   15.6931  -16.5267 C   0  0  0  0  0  0
  -20.2895   17.4518  -14.4898 S   0  0  0  0  0  0
  -21.0364   16.9597  -15.6289 O   0  0  0  0  0  0
  -19.4755   16.5596  -13.6806 O   0  0  0  0  0  0
  -21.4859   17.9590  -13.2989 N   0  0  0  0  0  0
  -22.7479   17.2624  -13.0811 C   0  0  0  0  0  0
  -23.2936   17.6796  -11.4727 C   0  0  0  0  0  0
  -24.9668   18.1796  -11.2744 C   0  0  0  0  0  0
  -25.3253   18.3933   -9.9497 O   0  0  0  0  0  0
  -24.6232   18.9322   -8.8799 C   0  0  0  0  0  0
  -26.1994   18.2342  -12.9126 C   0  0  0  0  0  0
  -25.5420   17.5999  -14.4789 C   0  0  0  0  0  0
  -23.8279   17.1142  -14.5166 C   0  0  0  0  0  0
  -21.6275   18.9542  -13.4849 H   0  0  0  0  0  0
  1  2  1  0  0  0
  2  3  1  0  0  0
  3  4  1  0  0  0
  4  5  2  0  0  0
  4  6  1  0  0  0
  6  7  2  0  0  0
  6 10  1  0  0  0
  7  8  1  0  0  0
  7 18  1  0  0  0
  8  9  2  0  0  0
  8 11  1  0  0  0
  9 10  1  0  0  0
 11 12  2  0  0  0
 11 17  1  0  0  0
 12 13  1  0  0  0
 13 14  2  0  0  0
 14 15  1  0  0  0
 14 16  1  0  0  0
 16 17  2  0  0  0
 18 19  2  0  0  0
 18 20  2  0  0  0
 18 21  1  0  0  0
 21 22  1  0  0  0
 21 30  1  0  0  0
 22 23  2  0  0  0
 22 29  1  0  0  0
 23 24  1  0  0  0
 24 25  1  0  0  0
 24 27  2  0  0  0
 25 26  1  0  0  0
 27 28  1  0  0  0
 28 29  2  0  0  0
M  END
>  <CHROM.0>
-175.22681881,-71.11711963,-5.93036647,-61.06674107,-31.41825796,64.83357050
82.38963192,-154.62766179

>  <CHROM.1>
-72.18337576,-7.90944351,-135.19144559,125.49292178,167.62309991,156.45821660
158.07564618,37.03458718,-20.29520149,18.12956330,-14.67602529,-2.53463149
-0.56095064,-2.67502705

>  <Name>
F3222-2124

>  <RI>
4.33053e+07

>  <Rbt.Current_Directory>
/home/adria/Escritorio/rDock_CMTR_LC/2pxcA_model/inputs_sah

>  <Rbt.Executable>
rbdock ($Id: //depot/dev/client3/rdock/2013.1/src/exe/rbdock.cxx#4 $)

>  <Rbt.Library>
libRbt.so (2013.1, Build901 2013/11/27)

>  <Rbt.Parameter_File>
/home/adria/Escritorio/rDock_2013.1_src/data/scripts/dock.prm

>  <Rbt.Receptor>
sah_rdock.prm

>  <SCORE>
-313.363

>  <SCORE.INTER>
-10.5918

>  <SCORE.INTER.CONST>
1

>  <SCORE.INTER.POLAR>
-0.824621

>  <SCORE.INTER.REPUL>
0.00533718

>  <SCORE.INTER.ROT>
8

>  <SCORE.INTER.VDW>
-21.2148

>  <SCORE.INTER.norm>
-0.365236

>  <SCORE.INTRA>
-296.379

>  <SCORE.INTRA.DIHEDRAL>
-10.7434

>  <SCORE.INTRA.DIHEDRAL.0>
24.2664

>  <SCORE.INTRA.POLAR>
0

>  <SCORE.INTRA.POLAR.0>
0

>  <SCORE.INTRA.REPUL>
0

>  <SCORE.INTRA.REPUL.0>
0

>  <SCORE.INTRA.VDW>
-291.007

>  <SCORE.INTRA.VDW.0>
288.566

>  <SCORE.INTRA.norm>
-10.22

>  <SCORE.RESTR>
0

>  <SCORE.RESTR.CAVITY>
0

>  <SCORE.RESTR.norm>
0

>  <SCORE.SYSTEM>
-6.39186

>  <SCORE.SYSTEM.CONST>
0

>  <SCORE.SYSTEM.DIHEDRAL>
9.59799

>  <SCORE.SYSTEM.POLAR>
-4.49701

>  <SCORE.SYSTEM.REPUL>
0.0350012

>  <SCORE.SYSTEM.VDW>
3.92397

>  <SCORE.SYSTEM.norm>
-0.220409

>  <SCORE.heavy>
29

>  <SCORE.norm>
-10.8056

$$$$
F3222-2124
  rDOCK(R)          3D
libRbt.so/2013.1/901 2013/11/27
 30 32  0  0  0  0  0  0  0  0999 V2000
  -14.0447   18.8741  -16.7275 C   0  0  0  0  0  0
  -14.9698   19.2153  -17.8928 C   0  0  0  0  0  0
  -16.3033   19.3471  -17.3890 O   0  0  0  0  0  0
  -16.5769   20.4385  -16.6006 C   0  0  0  0  0  0
  -15.7715   21.3385  -16.4144 O   0  0  0  0  0  0
  -17.8647   20.2310  -15.9311 C   0  0  0  0  0  0
  -18.6807   19.0886  -15.7628 C   0  0  0  0  0  0
  -20.0783   19.5900  -15.5039 C   0  0  0  0  0  0
  -20.1200   20.9268  -15.2203 C   0  0  0  0  0  0
  -18.6249   21.6586  -15.2991 S   0  0  0  0  0  0
  -21.4044   18.9773  -15.5058 C   0  0  0  0  0  0
  -22.5142   18.8007  -16.8609 C   0  0  0  0  0  0
  -24.3157   18.8819  -16.7066 C   0  0  0  0  0  0
  -25.1044   19.2848  -15.1405 C   0  0  0  0  0  0
  -26.5742   19.3519  -15.0371 C   0  0  0  0  0  0
  -24.0433   19.5125  -13.6759 C   0  0  0  0  0  0
  -22.0608   19.2205  -13.9837 C   0  0  0  0  0  0
  -17.9885   17.4382  -16.1652 S   0  0  0  0  0  0
  -18.6576   16.5936  -15.1975 O   0  0  0  0  0  0
  -18.2977   17.3500  -17.5830 O   0  0  0  0  0  0
  -16.3001   16.9326  -16.1755 N   0  0  0  0  0  0
  -15.8581   15.6172  -16.6224 C   0  0  0  0  0  0
  -16.8853   14.4374  -15.8404 C   0  0  0  0  0  0
  -17.5842   13.1666  -16.8332 C   0  0  0  0  0  0
  -18.3011   12.2275  -16.1031 O   0  0  0  0  0  0
  -19.0123   11.1015  -16.4958 C   0  0  0  0  0  0
  -17.1565   13.1092  -18.8381 C   0  0  0  0  0  0
  -15.9328   14.2890  -19.4693 C   0  0  0  0  0  0
  -15.3020   15.5086  -18.3335 C   0  0  0  0  0  0
  -15.9614   17.1491  -15.2356 H   0  0  0  0  0  0
  1  2  1  0  0  0
  2  3  1  0  0  0
  3  4  1  0  0  0
  4  5  2  0  0  0
  4  6  1  0  0  0
  6  7  2  0  0  0
  6 10  1  0  0  0
  7  8  1  0  0  0
  7 18  1  0  0  0
  8  9  2  0  0  0
  8 11  1  0  0  0
  9 10  1  0  0  0
 11 12  2  0  0  0
 11 17  1  0  0  0
 12 13  1  0  0  0
 13 14  2  0  0  0
 14 15  1  0  0  0
 14 16  1  0  0  0
 16 17  2  0  0  0
 18 19  2  0  0  0
 18 20  2  0  0  0
 18 21  1  0  0  0
 21 22  1  0  0  0
 21 30  1  0  0  0
 22 23  2  0  0  0
 22 29  1  0  0  0
 23 24  1  0  0  0
 24 25  1  0  0  0
 24 27  2  0  0  0
 25 26  1  0  0  0
 27 28  1  0  0  0
 28 29  2  0  0  0
M  END
>  <CHROM.0>
179.48614898,-163.97641805,-46.80387634,-142.37112485,29.39543422,63.39039038
-41.12109533,-163.49471558

>  <CHROM.1>
70.16647096,6.36856239,13.60378986,146.99647097,-88.67149065,-174.66174167
-48.02524070,178.83518757,-18.73179158,17.79959495,-16.28025718,-0.63136777
0.21709291,0.14342368

>  <Name>
F3222-2124

>  <RI>
4.33053e+07

>  <Rbt.Current_Directory>
/home/adria/Escritorio/rDock_CMTR_LC/2pxcA_model/inputs_sah

>  <Rbt.Executable>
rbdock ($Id: //depot/dev/client3/rdock/2013.1/src/exe/rbdock.cxx#4 $)

>  <Rbt.Library>
libRbt.so (2013.1, Build901 2013/11/27)

>  <Rbt.Parameter_File>
/home/adria/Escritorio/rDock_2013.1_src/data/scripts/dock.prm

>  <Rbt.Receptor>
sah_rdock.prm

>  <SCORE>
-290.704

>  <SCORE.INTER>
-5.07444

>  <SCORE.INTER.CONST>
1

>  <SCORE.INTER.POLAR>
0

>  <SCORE.INTER.REPUL>
0

>  <SCORE.INTER.ROT>
8

>  <SCORE.INTER.VDW>
-18.4744

>  <SCORE.INTER.norm>
-0.174981

>  <SCORE.INTRA>
-295.56

>  <SCORE.INTRA.DIHEDRAL>
-9.11839

>  <SCORE.INTRA.DIHEDRAL.0>
24.2664

>  <SCORE.INTRA.POLAR>
0

>  <SCORE.INTRA.POLAR.0>
0

>  <SCORE.INTRA.REPUL>
0

>  <SCORE.INTRA.REPUL.0>
0

>  <SCORE.INTRA.VDW>
-291.001

>  <SCORE.INTRA.VDW.0>
288.566

>  <SCORE.INTRA.norm>
-10.1917

>  <SCORE.RESTR>
0.307245

>  <SCORE.RESTR.CAVITY>
0.307245

>  <SCORE.RESTR.norm>
0.0105946

>  <SCORE.SYSTEM>
9.62318

>  <SCORE.SYSTEM.CONST>
0

>  <SCORE.SYSTEM.DIHEDRAL>
11.5487

>  <SCORE.SYSTEM.POLAR>
-3.27538

>  <SCORE.SYSTEM.VDW>
14.9851

>  <SCORE.SYSTEM.norm>
0.331834

>  <SCORE.heavy>
29

>  <SCORE.norm>
-10.0243

$$$$
F3222-2124
  rDOCK(R)          3D
libRbt.so/2013.1/901 2013/11/27
 30 32  0  0  0  0  0  0  0  0999 V2000
  -15.9963   17.4186  -16.8386 C   0  0  0  0  0  0
  -17.2130   17.9343  -17.6029 C   0  0  0  0  0  0
  -18.3469   17.8939  -16.7299 O   0  0  0  0  0  0
  -18.4160   18.8422  -15.7381 C   0  0  0  0  0  0
  -17.4999   19.6138  -15.4959 O   0  0  0  0  0  0
  -19.6458   18.6355  -14.9671 C   0  0  0  0  0  0
  -20.1725   19.2726  -13.8199 C   0  0  0  0  0  0
  -21.1306   18.2973  -13.1853 C   0  0  0  0  0  0
  -21.4390   17.2459  -14.0031 C   0  0  0  0  0  0
  -20.6258   17.2882  -15.4570 S   0  0  0  0  0  0
  -21.7917   18.2074  -11.8859 C   0  0  0  0  0  0
  -23.2919   17.3761  -11.4888 C   0  0  0  0  0  0
  -24.4728   17.9631  -10.2493 C   0  0  0  0  0  0
  -24.2463   19.5396   -9.4124 C   0  0  0  0  0  0
  -25.2236   20.0029   -8.4094 C   0  0  0  0  0  0
  -22.7353   20.4945   -9.7699 C   0  0  0  0  0  0
  -21.4346   19.6169  -11.0537 C   0  0  0  0  0  0
  -19.4168   20.8454  -13.2544 S   0  0  0  0  0  0
  -18.2872   20.3696  -12.4830 O   0  0  0  0  0  0
  -19.2278   21.5300  -14.5229 O   0  0  0  0  0  0
  -20.1538   22.1340  -12.3041 N   0  0  0  0  0  0
  -21.2952   22.9173  -12.7613 C   0  0  0  0  0  0
  -22.6687   21.8364  -12.8212 C   0  0  0  0  0  0
  -24.1738   22.3757  -12.0911 C   0  0  0  0  0  0
  -25.2263   21.4890  -12.2780 O   0  0  0  0  0  0
  -25.2759   20.2238  -12.8478 C   0  0  0  0  0  0
  -24.2616   24.2336  -11.2272 C   0  0  0  0  0  0
  -22.8133   25.3103  -11.4035 C   0  0  0  0  0  0
  -21.3661   24.6234  -12.1840 C   0  0  0  0  0  0
  -19.3702   22.7290  -12.0268 H   0  0  0  0  0  0
  1  2  1  0  0  0
  2  3  1  0  0  0
  3  4  1  0  0  0
  4  5  2  0  0  0
  4  6  1  0  0  0
  6  7  2  0  0  0
  6 10  1  0  0  0
  7  8  1  0  0  0
  7 18  1  0  0  0
  8  9  2  0  0  0
  8 11  1  0  0  0
  9 10  1  0  0  0
 11 12  2  0  0  0
 11 17  1  0  0  0
 12 13  1  0  0  0
 13 14  2  0  0  0
 14 15  1  0  0  0
 14 16  1  0  0  0
 16 17  2  0  0  0
 18 19  2  0  0  0
 18 20  2  0  0  0
 18 21  1  0  0  0
 21 22  1  0  0  0
 21 30  1  0  0  0
 22 23  2  0  0  0
 22 29  1  0  0  0
 23 24  1  0  0  0
 24 25  1  0  0  0
 24 27  2  0  0  0
 25 26  1  0  0  0
 27 28  1  0  0  0
 28 29  2  0  0  0
M  END
>  <CHROM.0>
-59.88275153,-168.25570501,-44.91689425,148.50444779,35.66524591,-178.35238819
-35.98666679,-167.07374736

>  <CHROM.1>
73.86665979,-7.51901959,176.59632049,-82.96893229,155.34446269,-62.64307834
67.62614073,5.36029836,-21.13132120,20.03027883,-13.14604620,-0.51602708
0.63903299,0.20175483

>  <Name>
F3222-2124

>  <RI>
4.33053e+07

>  <Rbt.Current_Directory>
/home/adria/Escritorio/rDock_CMTR_LC/2pxcA_model/inputs_sah

>  <Rbt.Executable>
rbdock ($Id: //depot/dev/client3/rdock/2013.1/src/exe/rbdock.cxx#4 $)

>  <Rbt.Library>
libRbt.so (2013.1, Build901 2013/11/27)

>  <Rbt.Parameter_File>
/home/adria/Escritorio/rDock_2013.1_src/data/scripts/dock.prm

>  <Rbt.Receptor>
sah_rdock.prm

>  <SCORE>
-303.755

>  <SCORE.INTER>
-11.4748

>  <SCORE.INTER.CONST>
1

>  <SCORE.INTER.POLAR>
-0.695554

>  <SCORE.INTER.REPUL>
0

>  <SCORE.INTER.ROT>
8

>  <SCORE.INTER.VDW>
-22.51

>  <SCORE.INTER.norm>
-0.395684

>  <SCORE.INTRA>
-301.183

>  <SCORE.INTRA.DIHEDRAL>
-20.2107

>  <SCORE.INTRA.DIHEDRAL.0>
24.2664

>  <SCORE.INTRA.POLAR>
0

>  <SCORE.INTRA.POLAR.0>
0

>  <SCORE.INTRA.REPUL>
0

>  <SCORE.INTRA.REPUL.0>
0

>  <SCORE.INTRA.VDW>
-291.078

>  <SCORE.INTRA.VDW.0>
288.566

>  <SCORE.INTRA.norm>
-10.3856

>  <SCORE.RESTR>
0

>  <SCORE.RESTR.CAVITY>
0

>  <SCORE.RESTR.norm>
0

>  <SCORE.SYSTEM>
8.90239

>  <SCORE.SYSTEM.CONST>
0

>  <SCORE.SYSTEM.DIHEDRAL>
9.11346

>  <SCORE.SYSTEM.POLAR>
-3.38496

>  <SCORE.SYSTEM.VDW>
15.8545

>  <SCORE.SYSTEM.norm>
0.306979

>  <SCORE.heavy>
29

>  <SCORE.norm>
-10.4743

$$$$
