F1525-2183
  rDOCK(R)          3D
libRbt.so/2013.1/901 2013/11/27
 31 35  0  0  0  0  0  0  0  0999 V2000
  -21.6303   19.6228  -10.8790 O   0  0  0  0  0  0
  -21.4875   19.5083  -12.2282 C   0  0  0  0  0  0
  -22.1218   20.1484  -13.2176 C   0  0  0  0  0  0
  -21.7225   19.6202  -14.5682 C   0  0  0  0  0  0
  -20.5499   18.8488  -14.2101 N   0  0  0  0  0  0
  -20.4427   18.6656  -12.8511 C   0  0  0  0  0  0
  -19.6108   18.0729  -12.1754 O   0  0  0  0  0  0
  -19.4769   18.5357  -15.0012 C   0  0  0  0  0  0
  -18.3461   18.0116  -14.6052 N   0  0  0  0  0  0
  -17.5034   17.8688  -15.6945 C   0  0  0  0  0  0
  -18.0167   18.3259  -16.9138 C   0  0  0  0  0  0
  -19.6339   18.8676  -16.6674 S   0  0  0  0  0  0
  -17.2623   18.2971  -18.0970 C   0  0  0  0  0  0
  -15.9764   17.7654  -18.0298 C   0  0  0  0  0  0
  -15.2318   17.7257  -19.1429 F   0  0  0  0  0  0
  -15.4486   17.2711  -16.8456 C   0  0  0  0  0  0
  -16.2036   17.3201  -15.6693 C   0  0  0  0  0  0
  -22.7484   18.7089  -15.2528 C   0  0  0  0  0  0
  -23.2359   17.5229  -14.6707 C   0  0  0  0  0  0
  -24.1391   16.7006  -15.3497 C   0  0  0  0  0  0
  -24.5607   17.0357  -16.6313 C   0  0  0  0  0  0
  -24.0876   18.1986  -17.2314 C   0  0  0  0  0  0
  -23.1963   19.0309  -16.5475 C   0  0  0  0  0  0
  -23.1245   21.2380  -13.1363 C   0  0  0  0  0  0
  -24.3105   20.9351  -13.2560 O   0  0  0  0  0  0
  -22.7097   22.6111  -12.9502 C   0  0  0  0  0  0
  -21.4443   23.1544  -12.8198 C   0  0  0  0  0  0
  -21.6149   24.5441  -12.6159 C   0  0  0  0  0  0
  -22.9717   24.7613  -12.5947 C   0  0  0  0  0  0
  -23.6437   23.5963  -12.7788 O   0  0  0  0  0  0
  -20.8433   19.1857  -10.4912 H   0  0  0  0  0  0
  1  2  1  0  0  0
  1 31  1  0  0  0
  2  3  2  0  0  0
  2  6  1  0  0  0
  3  4  1  0  0  0
  3 24  1  0  0  0
  4  5  1  0  0  0
  4 18  1  0  0  0
  5  6  1  0  0  0
  5  8  1  0  0  0
  6  7  2  0  0  0
  8  9  2  0  0  0
  8 12  1  0  0  0
  9 10  1  0  0  0
 10 11  2  0  0  0
 10 17  1  0  0  0
 11 12  1  0  0  0
 11 13  1  0  0  0
 13 14  2  0  0  0
 14 15  1  0  0  0
 14 16  1  0  0  0
 16 17  2  0  0  0
 18 19  2  0  0  0
 18 23  1  0  0  0
 19 20  1  0  0  0
 20 21  2  0  0  0
 21 22  1  0  0  0
 22 23  2  0  0  0
 24 25  2  0  0  0
 24 26  1  0  0  0
 26 27  2  0  0  0
 26 30  1  0  0  0
 27 28  1  0  0  0
 28 29  2  0  0  0
 29 30  1  0  0  0
M  END
>  <CHROM.0>
-59.86776106,-168.13789513,-128.82138707,62.37532549,34.67176684,-55.99712904
83.20487039,-167.37620220

>  <CHROM.1>
-165.02601736,-99.82978880,-57.64793309,169.09710481,-0.10428759,-20.66687408
19.39721418,-14.82662509,-2.39303654,-0.12504675,-2.45869967

>  <Name>
F1525-2183

>  <RI>
4.43252e+07

>  <Rbt.Current_Directory>
/home/adria/Escritorio/rDock_CMTR_LC/2pxcA_model/inputs_sah

>  <Rbt.Executable>
rbdock ($Id: //depot/dev/client3/rdock/2013.1/src/exe/rbdock.cxx#4 $)

>  <Rbt.Library>
libRbt.so (2013.1, Build901 2013/11/27)

>  <Rbt.Parameter_File>
/home/adria/Escritorio/rDock_2013.1_src/data/scripts/dock.prm

>  <Rbt.Receptor>
sah_rdock.prm

>  <SCORE>
-44.9109

>  <SCORE.INTER>
-11.782

>  <SCORE.INTER.CONST>
1

>  <SCORE.INTER.POLAR>
-1.24041

>  <SCORE.INTER.REPUL>
0

>  <SCORE.INTER.ROT>
4

>  <SCORE.INTER.VDW>
-16.9645

>  <SCORE.INTER.norm>
-0.392732

>  <SCORE.INTRA>
-39.2045

>  <SCORE.INTRA.DIHEDRAL>
-78.8881

>  <SCORE.INTRA.DIHEDRAL.0>
93.6769

>  <SCORE.INTRA.POLAR>
0

>  <SCORE.INTRA.POLAR.0>
0

>  <SCORE.INTRA.REPUL>
0

>  <SCORE.INTRA.REPUL.0>
0

>  <SCORE.INTRA.VDW>
0.239606

>  <SCORE.INTRA.VDW.0>
-4.173

>  <SCORE.INTRA.norm>
-1.30682

>  <SCORE.RESTR>
0

>  <SCORE.RESTR.CAVITY>
0

>  <SCORE.RESTR.norm>
0

>  <SCORE.SYSTEM>
6.07551

>  <SCORE.SYSTEM.CONST>
0

>  <SCORE.SYSTEM.DIHEDRAL>
8.28148

>  <SCORE.SYSTEM.POLAR>
-3.88118

>  <SCORE.SYSTEM.VDW>
15.1308

>  <SCORE.SYSTEM.norm>
0.202517

>  <SCORE.heavy>
30

>  <SCORE.norm>
-1.49703

$$$$
F1525-2183
  rDOCK(R)          3D
libRbt.so/2013.1/901 2013/11/27
 31 35  0  0  0  0  0  0  0  0999 V2000
  -24.8212   19.1759  -12.2100 O   0  0  0  0  0  0
  -23.6065   19.7750  -12.3487 C   0  0  0  0  0  0
  -22.8132   20.3344  -11.4274 C   0  0  0  0  0  0
  -21.6064   20.9807  -12.0505 C   0  0  0  0  0  0
  -21.6672   20.4164  -13.3832 N   0  0  0  0  0  0
  -22.8717   19.8007  -13.6329 C   0  0  0  0  0  0
  -23.2986   19.2262  -14.6267 O   0  0  0  0  0  0
  -20.6331   20.2141  -14.2577 C   0  0  0  0  0  0
  -20.6984   19.5985  -15.4096 N   0  0  0  0  0  0
  -19.4399   19.5751  -15.9862 C   0  0  0  0  0  0
  -18.4211   20.1615  -15.2265 C   0  0  0  0  0  0
  -19.1091   20.8240  -13.7922 S   0  0  0  0  0  0
  -17.0840   20.1687  -15.6531 C   0  0  0  0  0  0
  -16.7975   19.5917  -16.8884 C   0  0  0  0  0  0
  -15.5299   19.5825  -17.3219 F   0  0  0  0  0  0
  -17.7877   19.0328  -17.6836 C   0  0  0  0  0  0
  -19.1143   19.0167  -17.2406 C   0  0  0  0  0  0
  -21.6455   22.5113  -12.1378 C   0  0  0  0  0  0
  -20.7412   23.3460  -11.4533 C   0  0  0  0  0  0
  -20.8407   24.7378  -11.5286 C   0  0  0  0  0  0
  -21.8561   25.3258  -12.2744 C   0  0  0  0  0  0
  -22.7668   24.5226  -12.9539 C   0  0  0  0  0  0
  -22.6594   23.1299  -12.8927 C   0  0  0  0  0  0
  -22.9889   20.4007   -9.9564 C   0  0  0  0  0  0
  -22.8061   19.3700   -9.3107 O   0  0  0  0  0  0
  -23.3891   21.6339   -9.3151 C   0  0  0  0  0  0
  -23.6152   21.9165   -7.9801 C   0  0  0  0  0  0
  -24.0295   23.2676   -7.9126 C   0  0  0  0  0  0
  -24.0697   23.7182   -9.2102 C   0  0  0  0  0  0
  -23.7008   22.7330  -10.0682 O   0  0  0  0  0  0
  -25.0641   18.8588  -13.1052 H   0  0  0  0  0  0
  1  2  1  0  0  0
  1 31  1  0  0  0
  2  3  2  0  0  0
  2  6  1  0  0  0
  3  4  1  0  0  0
  3 24  1  0  0  0
  4  5  1  0  0  0
  4 18  1  0  0  0
  5  6  1  0  0  0
  5  8  1  0  0  0
  6  7  2  0  0  0
  8  9  2  0  0  0
  8 12  1  0  0  0
  9 10  1  0  0  0
 10 11  2  0  0  0
 10 17  1  0  0  0
 11 12  1  0  0  0
 11 13  1  0  0  0
 13 14  2  0  0  0
 14 15  1  0  0  0
 14 16  1  0  0  0
 16 17  2  0  0  0
 18 19  2  0  0  0
 18 23  1  0  0  0
 19 20  1  0  0  0
 20 21  2  0  0  0
 21 22  1  0  0  0
 22 23  2  0  0  0
 24 25  2  0  0  0
 24 26  1  0  0  0
 26 27  2  0  0  0
 26 30  1  0  0  0
 27 28  1  0  0  0
 28 29  2  0  0  0
 29 30  1  0  0  0
M  END
>  <CHROM.0>
-62.43204250,-71.88640547,-13.62305398,67.55912131,167.57532421,-179.50272772
83.11716242,-49.86825407

>  <CHROM.1>
-177.64310948,73.51120348,116.10379576,173.72178416,179.64109550,-21.23859814
21.07828215,-12.94057069,2.47447189,0.65262926,0.53070821

>  <Name>
F1525-2183

>  <RI>
4.43252e+07

>  <Rbt.Current_Directory>
/home/adria/Escritorio/rDock_CMTR_LC/2pxcA_model/inputs_sah

>  <Rbt.Executable>
rbdock ($Id: //depot/dev/client3/rdock/2013.1/src/exe/rbdock.cxx#4 $)

>  <Rbt.Library>
libRbt.so (2013.1, Build901 2013/11/27)

>  <Rbt.Parameter_File>
/home/adria/Escritorio/rDock_2013.1_src/data/scripts/dock.prm

>  <Rbt.Receptor>
sah_rdock.prm

>  <SCORE>
-56.2261

>  <SCORE.INTER>
-15.1204

>  <SCORE.INTER.CONST>
1

>  <SCORE.INTER.POLAR>
-0.903567

>  <SCORE.INTER.REPUL>
0

>  <SCORE.INTER.ROT>
4

>  <SCORE.INTER.VDW>
-21.4483

>  <SCORE.INTER.norm>
-0.504013

>  <SCORE.INTRA>
-41.2144

>  <SCORE.INTRA.DIHEDRAL>
-80.8756

>  <SCORE.INTRA.DIHEDRAL.0>
93.6769

>  <SCORE.INTRA.POLAR>
0

>  <SCORE.INTRA.POLAR.0>
0

>  <SCORE.INTRA.REPUL>
0

>  <SCORE.INTRA.REPUL.0>
0

>  <SCORE.INTRA.VDW>
-0.776635

>  <SCORE.INTRA.VDW.0>
-4.173

>  <SCORE.INTRA.norm>
-1.37381

>  <SCORE.RESTR>
0

>  <SCORE.RESTR.CAVITY>
0

>  <SCORE.RESTR.norm>
0

>  <SCORE.SYSTEM>
0.108684

>  <SCORE.SYSTEM.CONST>
0

>  <SCORE.SYSTEM.DIHEDRAL>
8.84867

>  <SCORE.SYSTEM.POLAR>
-4.0471

>  <SCORE.SYSTEM.REPUL>
0.0485848

>  <SCORE.SYSTEM.VDW>
9.20158

>  <SCORE.SYSTEM.norm>
0.00362281

>  <SCORE.heavy>
30

>  <SCORE.norm>
-1.8742

$$$$
F1525-2183
  rDOCK(R)          3D
libRbt.so/2013.1/901 2013/11/27
 31 35  0  0  0  0  0  0  0  0999 V2000
  -17.1909   20.1505  -16.0742 O   0  0  0  0  0  0
  -18.4018   20.1248  -15.4524 C   0  0  0  0  0  0
  -19.1008   19.0891  -14.9732 C   0  0  0  0  0  0
  -20.4505   19.5160  -14.4648 C   0  0  0  0  0  0
  -20.2687   20.9523  -14.4170 N   0  0  0  0  0  0
  -19.1364   21.3559  -15.0856 C   0  0  0  0  0  0
  -18.6569   22.4674  -15.2720 O   0  0  0  0  0  0
  -20.9117   21.8539  -13.6115 C   0  0  0  0  0  0
  -20.6646   23.1354  -13.5274 N   0  0  0  0  0  0
  -21.5061   23.7011  -12.5846 C   0  0  0  0  0  0
  -22.3710   22.8089  -11.9403 C   0  0  0  0  0  0
  -22.1549   21.2392  -12.6177 S   0  0  0  0  0  0
  -23.2460   23.2228  -10.9240 C   0  0  0  0  0  0
  -23.2511   24.5748  -10.5877 C   0  0  0  0  0  0
  -24.0751   24.9995   -9.6203 F   0  0  0  0  0  0
  -22.4327   25.4929  -11.2297 C   0  0  0  0  0  0
  -21.5529   25.0661  -12.2297 C   0  0  0  0  0  0
  -21.6382   19.1779  -15.3741 C   0  0  0  0  0  0
  -21.5172   18.9969  -16.7653 C   0  0  0  0  0  0
  -22.6346   18.7312  -17.5613 C   0  0  0  0  0  0
  -23.8989   18.6587  -16.9878 C   0  0  0  0  0  0
  -24.0459   18.8414  -15.6162 C   0  0  0  0  0  0
  -22.9271   19.0914  -14.8158 C   0  0  0  0  0  0
  -18.7254   17.6559  -14.9086 C   0  0  0  0  0  0
  -19.0516   17.0230  -13.9057 O   0  0  0  0  0  0
  -17.9765   17.0394  -15.9815 C   0  0  0  0  0  0
  -17.6390   17.5249  -17.2320 C   0  0  0  0  0  0
  -16.9388   16.4907  -17.8969 C   0  0  0  0  0  0
  -16.9239   15.4239  -17.0307 C   0  0  0  0  0  0
  -17.5637   15.7391  -15.8757 O   0  0  0  0  0  0
  -17.0027   21.0965  -16.2490 H   0  0  0  0  0  0
  1  2  1  0  0  0
  1 31  1  0  0  0
  2  3  2  0  0  0
  2  6  1  0  0  0
  3  4  1  0  0  0
  3 24  1  0  0  0
  4  5  1  0  0  0
  4 18  1  0  0  0
  5  6  1  0  0  0
  5  8  1  0  0  0
  6  7  2  0  0  0
  8  9  2  0  0  0
  8 12  1  0  0  0
  9 10  1  0  0  0
 10 11  2  0  0  0
 10 17  1  0  0  0
 11 12  1  0  0  0
 11 13  1  0  0  0
 13 14  2  0  0  0
 14 15  1  0  0  0
 14 16  1  0  0  0
 16 17  2  0  0  0
 18 19  2  0  0  0
 18 23  1  0  0  0
 19 20  1  0  0  0
 20 21  2  0  0  0
 21 22  1  0  0  0
 22 23  2  0  0  0
 24 25  2  0  0  0
 24 26  1  0  0  0
 26 27  2  0  0  0
 26 30  1  0  0  0
 27 28  1  0  0  0
 28 29  2  0  0  0
 29 30  1  0  0  0
M  END
>  <CHROM.0>
-62.16353175,66.42369084,-8.59570928,64.56650853,-30.49452985,60.86987789
-156.81088015,-161.05571378

>  <CHROM.1>
-178.23381476,141.18383637,-24.97702310,175.14302303,-8.91988744,-20.61176307
20.40316383,-14.36652088,-1.08756566,0.06893562,0.60241183

>  <Name>
F1525-2183

>  <RI>
4.43252e+07

>  <Rbt.Current_Directory>
/home/adria/Escritorio/rDock_CMTR_LC/2pxcA_model/inputs_sah

>  <Rbt.Executable>
rbdock ($Id: //depot/dev/client3/rdock/2013.1/src/exe/rbdock.cxx#4 $)

>  <Rbt.Library>
libRbt.so (2013.1, Build901 2013/11/27)

>  <Rbt.Parameter_File>
/home/adria/Escritorio/rDock_2013.1_src/data/scripts/dock.prm

>  <Rbt.Receptor>
sah_rdock.prm

>  <SCORE>
-65.648

>  <SCORE.INTER>
-15.9473

>  <SCORE.INTER.CONST>
1

>  <SCORE.INTER.POLAR>
-0.869379

>  <SCORE.INTER.REPUL>
0.00120849

>  <SCORE.INTER.ROT>
4

>  <SCORE.INTER.VDW>
-22.3974

>  <SCORE.INTER.norm>
-0.531576

>  <SCORE.INTRA>
-42.479

>  <SCORE.INTRA.DIHEDRAL>
-86.6563

>  <SCORE.INTRA.DIHEDRAL.0>
93.6769

>  <SCORE.INTRA.POLAR>
0

>  <SCORE.INTRA.POLAR.0>
0

>  <SCORE.INTRA.REPUL>
0

>  <SCORE.INTRA.REPUL.0>
0

>  <SCORE.INTRA.VDW>
0.849198

>  <SCORE.INTRA.VDW.0>
-4.173

>  <SCORE.INTRA.norm>
-1.41597

>  <SCORE.RESTR>
0

>  <SCORE.RESTR.CAVITY>
0

>  <SCORE.RESTR.norm>
0

>  <SCORE.SYSTEM>
-7.22171

>  <SCORE.SYSTEM.CONST>
0

>  <SCORE.SYSTEM.DIHEDRAL>
8.93429

>  <SCORE.SYSTEM.POLAR>
-4.36656

>  <SCORE.SYSTEM.VDW>
3.15747

>  <SCORE.SYSTEM.norm>
-0.240724

>  <SCORE.heavy>
30

>  <SCORE.norm>
-2.18827

$$$$
F1525-2183
  rDOCK(R)          3D
libRbt.so/2013.1/901 2013/11/27
 31 35  0  0  0  0  0  0  0  0999 V2000
  -25.0276   20.3968   -8.0594 O   0  0  0  0  0  0
  -24.1533   20.7300   -9.0484 C   0  0  0  0  0  0
  -23.4290   21.8427   -9.2171 C   0  0  0  0  0  0
  -22.6794   21.8265  -10.5210 C   0  0  0  0  0  0
  -22.8181   20.4311  -10.8842 N   0  0  0  0  0  0
  -23.7585   19.7846  -10.1161 C   0  0  0  0  0  0
  -24.1576   18.6268  -10.1262 O   0  0  0  0  0  0
  -21.9850   19.6811  -11.6707 C   0  0  0  0  0  0
  -20.9005   20.0970  -12.2716 N   0  0  0  0  0  0
  -20.3490   19.0514  -12.9925 C   0  0  0  0  0  0
  -21.0614   17.8476  -12.9433 C   0  0  0  0  0  0
  -22.4102   18.0432  -11.8887 S   0  0  0  0  0  0
  -20.6573   16.7131  -13.6641 C   0  0  0  0  0  0
  -19.4915   16.8106  -14.4206 C   0  0  0  0  0  0
  -19.0812   15.7443  -15.1204 F   0  0  0  0  0  0
  -18.7416   17.9771  -14.4644 C   0  0  0  0  0  0
  -19.1630   19.1064  -13.7550 C   0  0  0  0  0  0
  -23.2636   22.7076  -11.6320 C   0  0  0  0  0  0
  -24.6441   22.8068  -11.8918 C   0  0  0  0  0  0
  -25.1291   23.5900  -12.9425 C   0  0  0  0  0  0
  -24.2452   24.2763  -13.7674 C   0  0  0  0  0  0
  -22.8759   24.1884  -13.5361 C   0  0  0  0  0  0
  -22.3894   23.4181  -12.4755 C   0  0  0  0  0  0
  -23.3053   23.0231   -8.3280 C   0  0  0  0  0  0
  -23.6417   22.8924   -7.1522 O   0  0  0  0  0  0
  -22.8302   24.2887   -8.8424 C   0  0  0  0  0  0
  -23.2169   25.0017   -9.9630 C   0  0  0  0  0  0
  -22.3950   26.1520  -10.0194 C   0  0  0  0  0  0
  -21.5311   26.0545   -8.9552 C   0  0  0  0  0  0
  -21.7741   24.9225   -8.2464 O   0  0  0  0  0  0
  -25.3165   19.4814   -8.2584 H   0  0  0  0  0  0
  1  2  1  0  0  0
  1 31  1  0  0  0
  2  3  2  0  0  0
  2  6  1  0  0  0
  3  4  1  0  0  0
  3 24  1  0  0  0
  4  5  1  0  0  0
  4 18  1  0  0  0
  5  6  1  0  0  0
  5  8  1  0  0  0
  6  7  2  0  0  0
  8  9  2  0  0  0
  8 12  1  0  0  0
  9 10  1  0  0  0
 10 11  2  0  0  0
 10 17  1  0  0  0
 11 12  1  0  0  0
 11 13  1  0  0  0
 13 14  2  0  0  0
 14 15  1  0  0  0
 14 16  1  0  0  0
 16 17  2  0  0  0
 18 19  2  0  0  0
 18 23  1  0  0  0
 19 20  1  0  0  0
 20 21  2  0  0  0
 21 22  1  0  0  0
 22 23  2  0  0  0
 24 25  2  0  0  0
 24 26  1  0  0  0
 26 27  2  0  0  0
 26 30  1  0  0  0
 27 28  1  0  0  0
 28 29  2  0  0  0
 29 30  1  0  0  0
M  END
>  <CHROM.0>
-61.66857387,-168.29474235,-171.68081417,64.10181309,168.33001334,-177.73685755
81.28962906,-162.65230059

>  <CHROM.1>
-176.80726301,18.45598738,-41.41879472,-1.29914223,49.07475595,-22.36638542
21.06326225,-11.29911191,2.32797114,1.02222076,-0.12094728

>  <Name>
F1525-2183

>  <RI>
4.43252e+07

>  <Rbt.Current_Directory>
/home/adria/Escritorio/rDock_CMTR_LC/2pxcA_model/inputs_sah

>  <Rbt.Executable>
rbdock ($Id: //depot/dev/client3/rdock/2013.1/src/exe/rbdock.cxx#4 $)

>  <Rbt.Library>
libRbt.so (2013.1, Build901 2013/11/27)

>  <Rbt.Parameter_File>
/home/adria/Escritorio/rDock_2013.1_src/data/scripts/dock.prm

>  <Rbt.Receptor>
sah_rdock.prm

>  <SCORE>
-53.6082

>  <SCORE.INTER>
-15.4415

>  <SCORE.INTER.CONST>
1

>  <SCORE.INTER.POLAR>
-0.688482

>  <SCORE.INTER.REPUL>
0

>  <SCORE.INTER.ROT>
4

>  <SCORE.INTER.VDW>
-22.5007

>  <SCORE.INTER.norm>
-0.514718

>  <SCORE.INTRA>
-37.0981

>  <SCORE.INTRA.DIHEDRAL>
-82.166

>  <SCORE.INTRA.DIHEDRAL.0>
93.6769

>  <SCORE.INTRA.POLAR>
0

>  <SCORE.INTRA.POLAR.0>
0

>  <SCORE.INTRA.REPUL>
0

>  <SCORE.INTRA.REPUL.0>
0

>  <SCORE.INTRA.VDW>
3.98487

>  <SCORE.INTRA.VDW.0>
-4.173

>  <SCORE.INTRA.norm>
-1.2366

>  <SCORE.RESTR>
0

>  <SCORE.RESTR.CAVITY>
0

>  <SCORE.RESTR.norm>
0

>  <SCORE.SYSTEM>
-1.06858

>  <SCORE.SYSTEM.CONST>
0

>  <SCORE.SYSTEM.DIHEDRAL>
3.01806

>  <SCORE.SYSTEM.POLAR>
-3.38672

>  <SCORE.SYSTEM.VDW>
8.93723

>  <SCORE.SYSTEM.norm>
-0.0356192

>  <SCORE.heavy>
30

>  <SCORE.norm>
-1.78694

$$$$
F1525-2183
  rDOCK(R)          3D
libRbt.so/2013.1/901 2013/11/27
 31 35  0  0  0  0  0  0  0  0999 V2000
  -24.8452   20.7893   -8.4541 O   0  0  0  0  0  0
  -23.9715   21.1216   -9.4440 C   0  0  0  0  0  0
  -23.2523   22.2368   -9.6178 C   0  0  0  0  0  0
  -22.5015   22.2174  -10.9210 C   0  0  0  0  0  0
  -22.6333   20.8195  -11.2771 N   0  0  0  0  0  0
  -23.5713   20.1726  -10.5066 C   0  0  0  0  0  0
  -23.9650   19.0129  -10.5111 O   0  0  0  0  0  0
  -21.7960   20.0694  -12.0591 C   0  0  0  0  0  0
  -21.9298   18.8006  -12.3463 N   0  0  0  0  0  0
  -20.8694   18.3986  -13.1407 C   0  0  0  0  0  0
  -19.9194   19.3882  -13.4187 C   0  0  0  0  0  0
  -20.4431   20.8731  -12.7185 S   0  0  0  0  0  0
  -18.7621   19.1204  -14.1663 C   0  0  0  0  0  0
  -18.5956   17.8272  -14.6571 C   0  0  0  0  0  0
  -17.5001   17.5411  -15.3733 F   0  0  0  0  0  0
  -19.5342   16.8308  -14.4305 C   0  0  0  0  0  0
  -20.6756   17.1051  -13.6702 C   0  0  0  0  0  0
  -23.0888   23.0901  -12.0369 C   0  0  0  0  0  0
  -22.7366   24.4403  -12.2260 C   0  0  0  0  0  0
  -23.3291   25.2097  -13.2308 C   0  0  0  0  0  0
  -24.2990   24.6525  -14.0565 C   0  0  0  0  0  0
  -24.6699   23.3224  -13.8848 C   0  0  0  0  0  0
  -24.0667   22.5463  -12.8905 C   0  0  0  0  0  0
  -23.1348   23.4222   -8.7346 C   0  0  0  0  0  0
  -23.7610   23.4122   -7.6761 O   0  0  0  0  0  0
  -22.3307   24.5587   -9.1268 C   0  0  0  0  0  0
  -21.0209   24.6194   -9.5677 C   0  0  0  0  0  0
  -20.7206   25.9871   -9.7701 C   0  0  0  0  0  0
  -21.8484   26.6821   -9.4047 C   0  0  0  0  0  0
  -22.8227   25.8290   -8.9976 O   0  0  0  0  0  0
  -24.9513   21.5987   -7.9116 H   0  0  0  0  0  0
  1  2  1  0  0  0
  1 31  1  0  0  0
  2  3  2  0  0  0
  2  6  1  0  0  0
  3  4  1  0  0  0
  3 24  1  0  0  0
  4  5  1  0  0  0
  4 18  1  0  0  0
  5  6  1  0  0  0
  5  8  1  0  0  0
  6  7  2  0  0  0
  8  9  2  0  0  0
  8 12  1  0  0  0
  9 10  1  0  0  0
 10 11  2  0  0  0
 10 17  1  0  0  0
 11 12  1  0  0  0
 11 13  1  0  0  0
 13 14  2  0  0  0
 14 15  1  0  0  0
 14 16  1  0  0  0
 16 17  2  0  0  0
 18 19  2  0  0  0
 18 23  1  0  0  0
 19 20  1  0  0  0
 20 21  2  0  0  0
 21 22  1  0  0  0
 22 23  2  0  0  0
 24 25  2  0  0  0
 24 26  1  0  0  0
 26 27  2  0  0  0
 26 30  1  0  0  0
 27 28  1  0  0  0
 28 29  2  0  0  0
 29 30  1  0  0  0
M  END
>  <CHROM.0>
170.85064575,-165.62490730,110.44722799,65.34043908,19.31692368,63.01108163
-156.26567084,-159.24422690

>  <CHROM.1>
7.21667033,0.84466627,89.41790816,178.82147413,-51.24068151,-22.00538906
21.59830862,-11.63774994,2.27892553,0.87014217,0.01247747

>  <Name>
F1525-2183

>  <RI>
4.43252e+07

>  <Rbt.Current_Directory>
/home/adria/Escritorio/rDock_CMTR_LC/2pxcA_model/inputs_sah

>  <Rbt.Executable>
rbdock ($Id: //depot/dev/client3/rdock/2013.1/src/exe/rbdock.cxx#4 $)

>  <Rbt.Library>
libRbt.so (2013.1, Build901 2013/11/27)

>  <Rbt.Parameter_File>
/home/adria/Escritorio/rDock_2013.1_src/data/scripts/dock.prm

>  <Rbt.Receptor>
sah_rdock.prm

>  <SCORE>
-47.2407

>  <SCORE.INTER>
-11.8918

>  <SCORE.INTER.CONST>
1

>  <SCORE.INTER.POLAR>
-0.467116

>  <SCORE.INTER.REPUL>
0.0165852

>  <SCORE.INTER.ROT>
4

>  <SCORE.INTER.VDW>
-19.7866

>  <SCORE.INTER.norm>
-0.396395

>  <SCORE.INTRA>
-41.5624

>  <SCORE.INTRA.DIHEDRAL>
-83.9235

>  <SCORE.INTRA.DIHEDRAL.0>
93.6769

>  <SCORE.INTRA.POLAR>
0

>  <SCORE.INTRA.POLAR.0>
0

>  <SCORE.INTRA.REPUL>
0

>  <SCORE.INTRA.REPUL.0>
0

>  <SCORE.INTRA.VDW>
0.399345

>  <SCORE.INTRA.VDW.0>
-4.173

>  <SCORE.INTRA.norm>
-1.38541

>  <SCORE.RESTR>
0

>  <SCORE.RESTR.CAVITY>
0

>  <SCORE.RESTR.norm>
0

>  <SCORE.SYSTEM>
6.21352

>  <SCORE.SYSTEM.CONST>
0

>  <SCORE.SYSTEM.DIHEDRAL>
12.2528

>  <SCORE.SYSTEM.POLAR>
-4.16318

>  <SCORE.SYSTEM.REPUL>
0.00093694

>  <SCORE.SYSTEM.VDW>
14.2372

>  <SCORE.SYSTEM.norm>
0.207117

>  <SCORE.heavy>
30

>  <SCORE.norm>
-1.57469

$$$$
F1525-2183
  rDOCK(R)          3D
libRbt.so/2013.1/901 2013/11/27
 31 35  0  0  0  0  0  0  0  0999 V2000
  -16.7466   20.5955  -16.7443 O   0  0  0  0  0  0
  -17.8355   20.2982  -15.9830 C   0  0  0  0  0  0
  -18.2713   19.1168  -15.5298 C   0  0  0  0  0  0
  -19.5893   19.2462  -14.8166 C   0  0  0  0  0  0
  -19.6526   20.6831  -14.6443 N   0  0  0  0  0  0
  -18.7120   21.3400  -15.4032 C   0  0  0  0  0  0
  -18.4620   22.5319  -15.5324 O   0  0  0  0  0  0
  -20.3214   21.3843  -13.6768 C   0  0  0  0  0  0
  -20.2474   22.6717  -13.4587 N   0  0  0  0  0  0
  -21.0496   22.9980  -12.3784 C   0  0  0  0  0  0
  -21.7048   21.9207  -11.7708 C   0  0  0  0  0  0
  -21.3489   20.4846  -12.6541 S   0  0  0  0  0  0
  -22.5108   22.0848  -10.6335 C   0  0  0  0  0  0
  -22.6667   23.3759  -10.1338 C   0  0  0  0  0  0
  -23.4293   23.5637   -9.0483 F   0  0  0  0  0  0
  -22.0605   24.4714  -10.7316 C   0  0  0  0  0  0
  -21.2463   24.2935  -11.8548 C   0  0  0  0  0  0
  -20.8170   18.7678  -15.6013 C   0  0  0  0  0  0
  -21.0810   19.1527  -16.9299 C   0  0  0  0  0  0
  -22.2349   18.7257  -17.5923 C   0  0  0  0  0  0
  -23.1587   17.9200  -16.9363 C   0  0  0  0  0  0
  -22.9244   17.5321  -15.6206 C   0  0  0  0  0  0
  -21.7627   17.9452  -14.9614 C   0  0  0  0  0  0
  -17.6496   17.7769  -15.6600 C   0  0  0  0  0  0
  -18.2903   16.8066  -15.2588 O   0  0  0  0  0  0
  -16.3223   17.6293  -16.2156 C   0  0  0  0  0  0
  -15.3156   18.5618  -16.3894 C   0  0  0  0  0  0
  -14.2413   17.8911  -17.0202 C   0  0  0  0  0  0
  -14.6685   16.6018  -17.2294 C   0  0  0  0  0  0
  -15.9323   16.4369  -16.7620 O   0  0  0  0  0  0
  -16.6049   21.5598  -16.6390 H   0  0  0  0  0  0
  1  2  1  0  0  0
  1 31  1  0  0  0
  2  3  2  0  0  0
  2  6  1  0  0  0
  3  4  1  0  0  0
  3 24  1  0  0  0
  4  5  1  0  0  0
  4 18  1  0  0  0
  5  6  1  0  0  0
  5  8  1  0  0  0
  6  7  2  0  0  0
  8  9  2  0  0  0
  8 12  1  0  0  0
  9 10  1  0  0  0
 10 11  2  0  0  0
 10 17  1  0  0  0
 11 12  1  0  0  0
 11 13  1  0  0  0
 13 14  2  0  0  0
 14 15  1  0  0  0
 14 16  1  0  0  0
 16 17  2  0  0  0
 18 19  2  0  0  0
 18 23  1  0  0  0
 19 20  1  0  0  0
 20 21  2  0  0  0
 21 22  1  0  0  0
 22 23  2  0  0  0
 24 25  2  0  0  0
 24 26  1  0  0  0
 26 27  2  0  0  0
 26 30  1  0  0  0
 27 28  1  0  0  0
 28 29  2  0  0  0
 29 30  1  0  0  0
M  END
>  <CHROM.0>
-60.08000089,-74.58911836,-166.01870668,65.38795851,-31.40636471,-57.21957057
-156.32543476,-163.15514332

>  <CHROM.1>
-162.96086920,-173.93390084,-48.90064886,172.18080678,17.91933612,-19.73586826
20.13442821,-14.46014482,-0.92513302,0.18504497,0.68602961

>  <Name>
F1525-2183

>  <RI>
4.43252e+07

>  <Rbt.Current_Directory>
/home/adria/Escritorio/rDock_CMTR_LC/2pxcA_model/inputs_sah

>  <Rbt.Executable>
rbdock ($Id: //depot/dev/client3/rdock/2013.1/src/exe/rbdock.cxx#4 $)

>  <Rbt.Library>
libRbt.so (2013.1, Build901 2013/11/27)

>  <Rbt.Parameter_File>
/home/adria/Escritorio/rDock_2013.1_src/data/scripts/dock.prm

>  <Rbt.Receptor>
sah_rdock.prm

>  <SCORE>
-65.7751

>  <SCORE.INTER>
-16.6187

>  <SCORE.INTER.CONST>
1

>  <SCORE.INTER.POLAR>
-1.0204

>  <SCORE.INTER.REPUL>
0

>  <SCORE.INTER.ROT>
4

>  <SCORE.INTER.VDW>
-22.5493

>  <SCORE.INTER.norm>
-0.553955

>  <SCORE.INTRA>
-41.4856

>  <SCORE.INTRA.DIHEDRAL>
-88.3857

>  <SCORE.INTRA.DIHEDRAL.0>
93.6769

>  <SCORE.INTRA.POLAR>
0

>  <SCORE.INTRA.POLAR.0>
0

>  <SCORE.INTRA.REPUL>
0

>  <SCORE.INTRA.REPUL.0>
0

>  <SCORE.INTRA.VDW>
2.70727

>  <SCORE.INTRA.VDW.0>
-4.173

>  <SCORE.INTRA.norm>
-1.38285

>  <SCORE.RESTR>
0

>  <SCORE.RESTR.CAVITY>
0

>  <SCORE.RESTR.norm>
0

>  <SCORE.SYSTEM>
-7.6708

>  <SCORE.SYSTEM.CONST>
0

>  <SCORE.SYSTEM.DIHEDRAL>
6.57586

>  <SCORE.SYSTEM.POLAR>
-4.07275

>  <SCORE.SYSTEM.REPUL>
0.041249

>  <SCORE.SYSTEM.VDW>
2.68236

>  <SCORE.SYSTEM.norm>
-0.255693

>  <SCORE.heavy>
30

>  <SCORE.norm>
-2.1925

$$$$
F1525-2183
  rDOCK(R)          3D
libRbt.so/2013.1/901 2013/11/27
 31 35  0  0  0  0  0  0  0  0999 V2000
  -24.9661   19.0857  -12.1629 O   0  0  0  0  0  0
  -23.7676   19.7140  -12.3127 C   0  0  0  0  0  0
  -22.9891   20.3098  -11.4017 C   0  0  0  0  0  0
  -21.7998   20.9768  -12.0367 C   0  0  0  0  0  0
  -21.8461   20.3882  -13.3594 N   0  0  0  0  0  0
  -23.0341   19.7369  -13.5977 C   0  0  0  0  0  0
  -23.4460   19.1344  -14.5812 O   0  0  0  0  0  0
  -20.8072   20.1982  -14.2311 C   0  0  0  0  0  0
  -20.8595   19.5715  -15.3777 N   0  0  0  0  0  0
  -19.6000   19.5672  -15.9528 C   0  0  0  0  0  0
  -18.5935   20.1795  -15.1971 C   0  0  0  0  0  0
  -19.2958   20.8411  -13.7693 S   0  0  0  0  0  0
  -17.2563   20.2086  -15.6224 C   0  0  0  0  0  0
  -16.9574   19.6264  -16.8523 C   0  0  0  0  0  0
  -15.6892   19.6377  -17.2844 F   0  0  0  0  0  0
  -17.9358   19.0419  -17.6437 C   0  0  0  0  0  0
  -19.2623   19.0043  -17.2019 C   0  0  0  0  0  0
  -21.8791   22.5041  -12.1502 C   0  0  0  0  0  0
  -22.8567   23.1707  -12.9137 C   0  0  0  0  0  0
  -22.8652   24.5639  -13.0226 C   0  0  0  0  0  0
  -21.8873   25.3198  -12.3863 C   0  0  0  0  0  0
  -20.9058   24.6841  -11.6321 C   0  0  0  0  0  0
  -20.9049   23.2914  -11.5088 C   0  0  0  0  0  0
  -23.1660   20.3967   -9.9320 C   0  0  0  0  0  0
  -23.0218   19.3665   -9.2757 O   0  0  0  0  0  0
  -23.5236   21.6496   -9.3039 C   0  0  0  0  0  0
  -23.6563   21.9747   -7.9659 C   0  0  0  0  0  0
  -24.0684   23.3271   -7.9126 C   0  0  0  0  0  0
  -24.2007   23.7359   -9.2179 C   0  0  0  0  0  0
  -23.8902   22.7239  -10.0679 O   0  0  0  0  0  0
  -25.1795   18.7087  -13.0423 H   0  0  0  0  0  0
  1  2  1  0  0  0
  1 31  1  0  0  0
  2  3  2  0  0  0
  2  6  1  0  0  0
  3  4  1  0  0  0
  3 24  1  0  0  0
  4  5  1  0  0  0
  4 18  1  0  0  0
  5  6  1  0  0  0
  5  8  1  0  0  0
  6  7  2  0  0  0
  8  9  2  0  0  0
  8 12  1  0  0  0
  9 10  1  0  0  0
 10 11  2  0  0  0
 10 17  1  0  0  0
 11 12  1  0  0  0
 11 13  1  0  0  0
 13 14  2  0  0  0
 14 15  1  0  0  0
 14 16  1  0  0  0
 16 17  2  0  0  0
 18 19  2  0  0  0
 18 23  1  0  0  0
 19 20  1  0  0  0
 20 21  2  0  0  0
 21 22  1  0  0  0
 22 23  2  0  0  0
 24 25  2  0  0  0
 24 26  1  0  0  0
 26 27  2  0  0  0
 26 30  1  0  0  0
 27 28  1  0  0  0
 28 29  2  0  0  0
 29 30  1  0  0  0
M  END
>  <CHROM.0>
-176.53736609,-71.55113870,-131.22542778,65.46796912,168.08866871,62.89439933
83.16114179,-162.37916684

>  <CHROM.1>
-174.91777439,69.92938912,-62.65816348,174.36773641,-175.49864856,-21.39128976
21.07336840,-12.93039809,2.48503952,0.66149655,0.52011189

>  <Name>
F1525-2183

>  <RI>
4.43252e+07

>  <Rbt.Current_Directory>
/home/adria/Escritorio/rDock_CMTR_LC/2pxcA_model/inputs_sah

>  <Rbt.Executable>
rbdock ($Id: //depot/dev/client3/rdock/2013.1/src/exe/rbdock.cxx#4 $)

>  <Rbt.Library>
libRbt.so (2013.1, Build901 2013/11/27)

>  <Rbt.Parameter_File>
/home/adria/Escritorio/rDock_2013.1_src/data/scripts/dock.prm

>  <Rbt.Receptor>
sah_rdock.prm

>  <SCORE>
-57.9355

>  <SCORE.INTER>
-14.8505

>  <SCORE.INTER.CONST>
1

>  <SCORE.INTER.POLAR>
-0.89912

>  <SCORE.INTER.REPUL>
0

>  <SCORE.INTER.ROT>
4

>  <SCORE.INTER.VDW>
-21.1935

>  <SCORE.INTER.norm>
-0.495017

>  <SCORE.INTRA>
-41.3775

>  <SCORE.INTRA.DIHEDRAL>
-81.0531

>  <SCORE.INTRA.DIHEDRAL.0>
93.6769

>  <SCORE.INTRA.POLAR>
0

>  <SCORE.INTRA.POLAR.0>
0

>  <SCORE.INTRA.REPUL>
0

>  <SCORE.INTRA.REPUL.0>
0

>  <SCORE.INTRA.VDW>
-0.850956

>  <SCORE.INTRA.VDW.0>
-4.173

>  <SCORE.INTRA.norm>
-1.37925

>  <SCORE.RESTR>
0

>  <SCORE.RESTR.CAVITY>
0

>  <SCORE.RESTR.norm>
0

>  <SCORE.SYSTEM>
-1.70744

>  <SCORE.SYSTEM.CONST>
0

>  <SCORE.SYSTEM.DIHEDRAL>
6.44978

>  <SCORE.SYSTEM.POLAR>
-4.35401

>  <SCORE.SYSTEM.REPUL>
0.0358462

>  <SCORE.SYSTEM.VDW>
9.69207

>  <SCORE.SYSTEM.norm>
-0.0569145

>  <SCORE.heavy>
30

>  <SCORE.norm>
-1.93118

$$$$
F1525-2183
  rDOCK(R)          3D
libRbt.so/2013.1/901 2013/11/27
 31 35  0  0  0  0  0  0  0  0999 V2000
  -24.7075   19.1061  -11.9691 O   0  0  0  0  0  0
  -23.5076   19.7195  -12.1631 C   0  0  0  0  0  0
  -22.7016   20.3292  -11.2857 C   0  0  0  0  0  0
  -21.5225   20.9699  -11.9652 C   0  0  0  0  0  0
  -21.6066   20.3508  -13.2721 N   0  0  0  0  0  0
  -22.8057   19.7052  -13.4657 C   0  0  0  0  0  0
  -23.2471   19.0836  -14.4242 O   0  0  0  0  0  0
  -20.5912   20.1305  -14.1641 C   0  0  0  0  0  0
  -20.6776   19.4791  -15.2948 N   0  0  0  0  0  0
  -19.4327   19.4488  -15.8999 C   0  0  0  0  0  0
  -18.4020   20.0671  -15.1826 C   0  0  0  0  0  0
  -19.0626   20.7676  -13.7536 S   0  0  0  0  0  0
  -17.0753   20.0727  -15.6407 C   0  0  0  0  0  0
  -16.8123   19.4602  -16.8641 C   0  0  0  0  0  0
  -15.5550   19.4486  -17.3268 F   0  0  0  0  0  0
  -17.8155   18.8686  -17.6182 C   0  0  0  0  0  0
  -19.1311   18.8547  -17.1438 C   0  0  0  0  0  0
  -21.5912   22.4948  -12.1131 C   0  0  0  0  0  0
  -20.7622   23.3773  -11.3942 C   0  0  0  0  0  0
  -20.8887   24.7624  -11.5295 C   0  0  0  0  0  0
  -21.8575   25.2960  -12.3717 C   0  0  0  0  0  0
  -22.6941   24.4449  -13.0874 C   0  0  0  0  0  0
  -22.5586   23.0587  -12.9656 C   0  0  0  0  0  0
  -22.8415   20.4524   -9.8146 C   0  0  0  0  0  0
  -22.5124   19.4885   -9.1252 O   0  0  0  0  0  0
  -23.3744   21.6594   -9.2218 C   0  0  0  0  0  0
  -23.8666   22.8072   -9.8165 C   0  0  0  0  0  0
  -24.2154   23.6928   -8.7697 C   0  0  0  0  0  0
  -23.8803   23.0513   -7.6015 C   0  0  0  0  0  0
  -23.3547   21.8274   -7.8639 O   0  0  0  0  0  0
  -24.9186   19.2309  -11.0200 H   0  0  0  0  0  0
  1  2  1  0  0  0
  1 31  1  0  0  0
  2  3  2  0  0  0
  2  6  1  0  0  0
  3  4  1  0  0  0
  3 24  1  0  0  0
  4  5  1  0  0  0
  4 18  1  0  0  0
  5  6  1  0  0  0
  5  8  1  0  0  0
  6  7  2  0  0  0
  8  9  2  0  0  0
  8 12  1  0  0  0
  9 10  1  0  0  0
 10 11  2  0  0  0
 10 17  1  0  0  0
 11 12  1  0  0  0
 11 13  1  0  0  0
 13 14  2  0  0  0
 14 15  1  0  0  0
 14 16  1  0  0  0
 16 17  2  0  0  0
 18 19  2  0  0  0
 18 23  1  0  0  0
 19 20  1  0  0  0
 20 21  2  0  0  0
 21 22  1  0  0  0
 22 23  2  0  0  0
 24 25  2  0  0  0
 24 26  1  0  0  0
 26 27  2  0  0  0
 26 30  1  0  0  0
 27 28  1  0  0  0
 28 29  2  0  0  0
 29 30  1  0  0  0
M  END
>  <CHROM.0>
-61.90158716,65.70458012,-47.16627213,63.67031671,-30.38859238,61.29853499
-156.42965040,-167.67585414

>  <CHROM.1>
2.79480632,79.71528457,110.25218640,174.46949662,2.79710370,-21.18988674
21.01232545,-12.82201854,2.48970626,0.70168010,0.48704576

>  <Name>
F1525-2183

>  <RI>
4.43252e+07

>  <Rbt.Current_Directory>
/home/adria/Escritorio/rDock_CMTR_LC/2pxcA_model/inputs_sah

>  <Rbt.Executable>
rbdock ($Id: //depot/dev/client3/rdock/2013.1/src/exe/rbdock.cxx#4 $)

>  <Rbt.Library>
libRbt.so (2013.1, Build901 2013/11/27)

>  <Rbt.Parameter_File>
/home/adria/Escritorio/rDock_2013.1_src/data/scripts/dock.prm

>  <Rbt.Receptor>
sah_rdock.prm

>  <SCORE>
-65.3909

>  <SCORE.INTER>
-17.2884

>  <SCORE.INTER.CONST>
1

>  <SCORE.INTER.POLAR>
-1.69443

>  <SCORE.INTER.REPUL>
0.186171

>  <SCORE.INTER.ROT>
4

>  <SCORE.INTER.VDW>
-21.8582

>  <SCORE.INTER.norm>
-0.57628

>  <SCORE.INTRA>
-40.6848

>  <SCORE.INTRA.DIHEDRAL>
-80.1679

>  <SCORE.INTRA.DIHEDRAL.0>
93.6769

>  <SCORE.INTRA.POLAR>
0

>  <SCORE.INTRA.POLAR.0>
0

>  <SCORE.INTRA.REPUL>
0

>  <SCORE.INTRA.REPUL.0>
0

>  <SCORE.INTRA.VDW>
-0.600851

>  <SCORE.INTRA.VDW.0>
-4.173

>  <SCORE.INTRA.norm>
-1.35616

>  <SCORE.RESTR>
0

>  <SCORE.RESTR.CAVITY>
0

>  <SCORE.RESTR.norm>
0

>  <SCORE.SYSTEM>
-7.41766

>  <SCORE.SYSTEM.CONST>
0

>  <SCORE.SYSTEM.DIHEDRAL>
5.58972

>  <SCORE.SYSTEM.POLAR>
-3.74191

>  <SCORE.SYSTEM.VDW>
2.50995

>  <SCORE.SYSTEM.norm>
-0.247255

>  <SCORE.heavy>
30

>  <SCORE.norm>
-2.1797

$$$$
F1525-2183
  rDOCK(R)          3D
libRbt.so/2013.1/901 2013/11/27
 31 35  0  0  0  0  0  0  0  0999 V2000
  -21.9178   19.3794   -8.9235 O   0  0  0  0  0  0
  -21.9372   19.5711  -10.2713 C   0  0  0  0  0  0
  -22.3020   20.6448  -10.9821 C   0  0  0  0  0  0
  -22.2702   20.3705  -12.4607 C   0  0  0  0  0  0
  -21.5245   19.1287  -12.4795 N   0  0  0  0  0  0
  -21.4086   18.5725  -11.2268 C   0  0  0  0  0  0
  -20.8686   17.5423  -10.8432 O   0  0  0  0  0  0
  -20.7535   18.6273  -13.4941 C   0  0  0  0  0  0
  -20.0531   17.5233  -13.4652 N   0  0  0  0  0  0
  -19.3900   17.3722  -14.6712 C   0  0  0  0  0  0
  -19.5849   18.4044  -15.5963 C   0  0  0  0  0  0
  -20.7014   19.5387  -14.9355 S   0  0  0  0  0  0
  -18.9386   18.4199  -16.8420 C   0  0  0  0  0  0
  -18.1052   17.3468  -17.1501 C   0  0  0  0  0  0
  -17.4736   17.3343  -18.3315 F   0  0  0  0  0  0
  -17.9164   16.2896  -16.2716 C   0  0  0  0  0  0
  -18.5530   16.2931  -15.0262 C   0  0  0  0  0  0
  -23.6363   20.1601  -13.1250 C   0  0  0  0  0  0
  -23.9370   19.0476  -13.9343 C   0  0  0  0  0  0
  -25.1826   18.9183  -14.5543 C   0  0  0  0  0  0
  -26.1481   19.9057  -14.3941 C   0  0  0  0  0  0
  -25.8726   21.0185  -13.6054 C   0  0  0  0  0  0
  -24.6326   21.1420  -12.9713 C   0  0  0  0  0  0
  -22.7253   21.9836  -10.5054 C   0  0  0  0  0  0
  -23.5129   22.0332   -9.5620 O   0  0  0  0  0  0
  -22.2443   23.1843  -11.1528 C   0  0  0  0  0  0
  -22.6394   24.5016  -11.0038 C   0  0  0  0  0  0
  -21.8682   25.2650  -11.9117 C   0  0  0  0  0  0
  -21.0776   24.3669  -12.5877 C   0  0  0  0  0  0
  -21.3093   23.1034  -12.1486 O   0  0  0  0  0  0
  -22.2163   20.2266   -8.5310 H   0  0  0  0  0  0
  1  2  1  0  0  0
  1 31  1  0  0  0
  2  3  2  0  0  0
  2  6  1  0  0  0
  3  4  1  0  0  0
  3 24  1  0  0  0
  4  5  1  0  0  0
  4 18  1  0  0  0
  5  6  1  0  0  0
  5  8  1  0  0  0
  6  7  2  0  0  0
  8  9  2  0  0  0
  8 12  1  0  0  0
  9 10  1  0  0  0
 10 11  2  0  0  0
 10 17  1  0  0  0
 11 12  1  0  0  0
 11 13  1  0  0  0
 13 14  2  0  0  0
 14 15  1  0  0  0
 14 16  1  0  0  0
 16 17  2  0  0  0
 18 19  2  0  0  0
 18 23  1  0  0  0
 19 20  1  0  0  0
 20 21  2  0  0  0
 21 22  1  0  0  0
 22 23  2  0  0  0
 24 25  2  0  0  0
 24 26  1  0  0  0
 26 27  2  0  0  0
 26 30  1  0  0  0
 27 28  1  0  0  0
 28 29  2  0  0  0
 29 30  1  0  0  0
M  END
>  <CHROM.0>
-62.84652962,-166.29259915,113.64456669,63.73451280,168.15375496,-58.81063076
-38.94257627,-126.71397412

>  <CHROM.1>
-1.43034704,-43.88208059,-128.32288578,177.44887272,169.99346991,-21.53124069
19.86514227,-13.21950423,-2.13394281,-0.08363791,-2.39729010

>  <Name>
F1525-2183

>  <RI>
4.43252e+07

>  <Rbt.Current_Directory>
/home/adria/Escritorio/rDock_CMTR_LC/2pxcA_model/inputs_sah

>  <Rbt.Executable>
rbdock ($Id: //depot/dev/client3/rdock/2013.1/src/exe/rbdock.cxx#4 $)

>  <Rbt.Library>
libRbt.so (2013.1, Build901 2013/11/27)

>  <Rbt.Parameter_File>
/home/adria/Escritorio/rDock_2013.1_src/data/scripts/dock.prm

>  <Rbt.Receptor>
sah_rdock.prm

>  <SCORE>
-54.6692

>  <SCORE.INTER>
-13.7442

>  <SCORE.INTER.CONST>
1

>  <SCORE.INTER.POLAR>
-1.91271

>  <SCORE.INTER.REPUL>
0.0515612

>  <SCORE.INTER.ROT>
4

>  <SCORE.INTER.VDW>
-16.8987

>  <SCORE.INTER.norm>
-0.458139

>  <SCORE.INTRA>
-41.8739

>  <SCORE.INTRA.DIHEDRAL>
-85.07

>  <SCORE.INTRA.DIHEDRAL.0>
93.6769

>  <SCORE.INTRA.POLAR>
0

>  <SCORE.INTRA.POLAR.0>
0

>  <SCORE.INTRA.REPUL>
0

>  <SCORE.INTRA.REPUL.0>
0

>  <SCORE.INTRA.VDW>
0.661109

>  <SCORE.INTRA.VDW.0>
-4.173

>  <SCORE.INTRA.norm>
-1.3958

>  <SCORE.RESTR>
0

>  <SCORE.RESTR.CAVITY>
0

>  <SCORE.RESTR.norm>
0

>  <SCORE.SYSTEM>
0.948885

>  <SCORE.SYSTEM.CONST>
0

>  <SCORE.SYSTEM.DIHEDRAL>
9.24493

>  <SCORE.SYSTEM.POLAR>
-3.78728

>  <SCORE.SYSTEM.VDW>
9.20317

>  <SCORE.SYSTEM.norm>
0.0316295

>  <SCORE.heavy>
30

>  <SCORE.norm>
-1.82231

$$$$
F1525-2183
  rDOCK(R)          3D
libRbt.so/2013.1/901 2013/11/27
 31 35  0  0  0  0  0  0  0  0999 V2000
  -17.2194   19.7618  -16.1747 O   0  0  0  0  0  0
  -18.4167   19.7747  -15.5266 C   0  0  0  0  0  0
  -19.1515   18.7594  -15.0573 C   0  0  0  0  0  0
  -20.4693   19.2334  -14.5083 C   0  0  0  0  0  0
  -20.2215   20.6584  -14.4295 N   0  0  0  0  0  0
  -19.0866   21.0277  -15.1133 C   0  0  0  0  0  0
  -18.5613   22.1209  -15.2831 O   0  0  0  0  0  0
  -20.8055   21.5671  -13.5878 C   0  0  0  0  0  0
  -20.4820   22.8278  -13.4600 N   0  0  0  0  0  0
  -21.2835   23.4084  -12.4917 C   0  0  0  0  0  0
  -22.1968   22.5466  -11.8734 C   0  0  0  0  0  0
  -22.0782   20.9921  -12.6076 S   0  0  0  0  0  0
  -23.0405   22.9750  -10.8368 C   0  0  0  0  0  0
  -22.9632   24.3119  -10.4525 C   0  0  0  0  0  0
  -23.7555   24.7499   -9.4649 F   0  0  0  0  0  0
  -22.0947   25.2022  -11.0674 C   0  0  0  0  0  0
  -21.2470   24.7600  -12.0882 C   0  0  0  0  0  0
  -21.6903   18.9722  -15.3986 C   0  0  0  0  0  0
  -22.9650   18.6611  -14.8874 C   0  0  0  0  0  0
  -24.0400   18.3890  -15.7376 C   0  0  0  0  0  0
  -23.8609   18.4038  -17.1162 C   0  0  0  0  0  0
  -22.6090   18.7009  -17.6461 C   0  0  0  0  0  0
  -21.5360   18.9892  -16.7973 C   0  0  0  0  0  0
  -18.8403   17.3097  -15.0362 C   0  0  0  0  0  0
  -19.1112   16.6805  -14.0147 O   0  0  0  0  0  0
  -18.2136   16.6722  -16.1733 C   0  0  0  0  0  0
  -18.0642   17.1117  -17.4763 C   0  0  0  0  0  0
  -17.4146   16.0741  -18.1859 C   0  0  0  0  0  0
  -17.2411   15.0495  -17.2867 C   0  0  0  0  0  0
  -17.7363   15.3939  -16.0706 O   0  0  0  0  0  0
  -16.9146   18.8305  -16.1498 H   0  0  0  0  0  0
  1  2  1  0  0  0
  1 31  1  0  0  0
  2  3  2  0  0  0
  2  6  1  0  0  0
  3  4  1  0  0  0
  3 24  1  0  0  0
  4  5  1  0  0  0
  4 18  1  0  0  0
  5  6  1  0  0  0
  5  8  1  0  0  0
  6  7  2  0  0  0
  8  9  2  0  0  0
  8 12  1  0  0  0
  9 10  1  0  0  0
 10 11  2  0  0  0
 10 17  1  0  0  0
 11 12  1  0  0  0
 11 13  1  0  0  0
 13 14  2  0  0  0
 14 15  1  0  0  0
 14 16  1  0  0  0
 16 17  2  0  0  0
 18 19  2  0  0  0
 18 23  1  0  0  0
 19 20  1  0  0  0
 20 21  2  0  0  0
 21 22  1  0  0  0
 22 23  2  0  0  0
 24 25  2  0  0  0
 24 26  1  0  0  0
 26 27  2  0  0  0
 26 30  1  0  0  0
 27 28  1  0  0  0
 28 29  2  0  0  0
 29 30  1  0  0  0
M  END
>  <CHROM.0>
-174.53577266,-66.69463034,-46.09808270,64.49167651,-30.10615320,-177.37167339
-38.43694184,-161.27491193

>  <CHROM.1>
-6.67443628,137.53485217,145.16128079,173.76911495,-15.37580923,-20.59088268
20.09819353,-14.40576501,-1.15188957,0.06247923,0.63297292

>  <Name>
F1525-2183

>  <RI>
4.43252e+07

>  <Rbt.Current_Directory>
/home/adria/Escritorio/rDock_CMTR_LC/2pxcA_model/inputs_sah

>  <Rbt.Executable>
rbdock ($Id: //depot/dev/client3/rdock/2013.1/src/exe/rbdock.cxx#4 $)

>  <Rbt.Library>
libRbt.so (2013.1, Build901 2013/11/27)

>  <Rbt.Parameter_File>
/home/adria/Escritorio/rDock_2013.1_src/data/scripts/dock.prm

>  <Rbt.Receptor>
sah_rdock.prm

>  <SCORE>
-63.4713

>  <SCORE.INTER>
-14.796

>  <SCORE.INTER.CONST>
1

>  <SCORE.INTER.POLAR>
-0.824621

>  <SCORE.INTER.REPUL>
0.0333148

>  <SCORE.INTER.ROT>
4

>  <SCORE.INTER.VDW>
-21.5588

>  <SCORE.INTER.norm>
-0.4932

>  <SCORE.INTRA>
-41.7221

>  <SCORE.INTRA.DIHEDRAL>
-85.1421

>  <SCORE.INTRA.DIHEDRAL.0>
93.6769

>  <SCORE.INTRA.POLAR>
0

>  <SCORE.INTRA.POLAR.0>
0

>  <SCORE.INTRA.REPUL>
0

>  <SCORE.INTRA.REPUL.0>
0

>  <SCORE.INTRA.VDW>
0.848955

>  <SCORE.INTRA.VDW.0>
-4.173

>  <SCORE.INTRA.norm>
-1.39074

>  <SCORE.RESTR>
0

>  <SCORE.RESTR.CAVITY>
0

>  <SCORE.RESTR.norm>
0

>  <SCORE.SYSTEM>
-6.95322

>  <SCORE.SYSTEM.CONST>
0

>  <SCORE.SYSTEM.DIHEDRAL>
6.04293

>  <SCORE.SYSTEM.POLAR>
-3.85628

>  <SCORE.SYSTEM.REPUL>
0.0253892

>  <SCORE.SYSTEM.VDW>
3.00971

>  <SCORE.SYSTEM.norm>
-0.231774

>  <SCORE.heavy>
30

>  <SCORE.norm>
-2.11571

$$$$
F1525-2183
  rDOCK(R)          3D
libRbt.so/2013.1/901 2013/11/27
 31 35  0  0  0  0  0  0  0  0999 V2000
  -22.8720   19.6759   -8.6175 O   0  0  0  0  0  0
  -22.5342   20.2778   -9.7911 C   0  0  0  0  0  0
  -22.6350   21.5602  -10.1602 C   0  0  0  0  0  0
  -22.2444   21.7575  -11.5993 C   0  0  0  0  0  0
  -21.6008   20.4886  -11.8711 N   0  0  0  0  0  0
  -21.8449   19.5599  -10.8862 C   0  0  0  0  0  0
  -21.4888   18.3946  -10.7636 O   0  0  0  0  0  0
  -20.6305   20.2209  -12.7996 C   0  0  0  0  0  0
  -20.0026   19.0853  -12.9622 N   0  0  0  0  0  0
  -19.0770   19.2182  -13.9833 C   0  0  0  0  0  0
  -19.0031   20.4895  -14.5641 C   0  0  0  0  0  0
  -20.1983   21.4998  -13.8429 S   0  0  0  0  0  0
  -18.0775   20.7941  -15.5743 C   0  0  0  0  0  0
  -17.2387   19.7710  -16.0109 C   0  0  0  0  0  0
  -16.3438   20.0319  -16.9733 F   0  0  0  0  0  0
  -17.3084   18.4901  -15.4822 C   0  0  0  0  0  0
  -18.2237   18.2025  -14.4644 C   0  0  0  0  0  0
  -23.4063   21.9651  -12.5785 C   0  0  0  0  0  0
  -23.7763   23.2281  -13.0794 C   0  0  0  0  0  0
  -24.8693   23.3753  -13.9375 C   0  0  0  0  0  0
  -25.6271   22.2673  -14.2993 C   0  0  0  0  0  0
  -25.2864   21.0094  -13.8116 C   0  0  0  0  0  0
  -24.1835   20.8576  -12.9657 C   0  0  0  0  0  0
  -23.0782   22.7311   -9.3656 C   0  0  0  0  0  0
  -23.8730   22.5330   -8.4480 O   0  0  0  0  0  0
  -22.6077   24.0612   -9.6846 C   0  0  0  0  0  0
  -21.7054   24.4858  -10.6432 C   0  0  0  0  0  0
  -21.5767   25.8867  -10.4916 C   0  0  0  0  0  0
  -22.3757   26.2288   -9.4271 C   0  0  0  0  0  0
  -22.9908   25.1298   -8.9205 O   0  0  0  0  0  0
  -23.2602   20.3823   -8.0596 H   0  0  0  0  0  0
  1  2  1  0  0  0
  1 31  1  0  0  0
  2  3  2  0  0  0
  2  6  1  0  0  0
  3  4  1  0  0  0
  3 24  1  0  0  0
  4  5  1  0  0  0
  4 18  1  0  0  0
  5  6  1  0  0  0
  5  8  1  0  0  0
  6  7  2  0  0  0
  8  9  2  0  0  0
  8 12  1  0  0  0
  9 10  1  0  0  0
 10 11  2  0  0  0
 10 17  1  0  0  0
 11 12  1  0  0  0
 11 13  1  0  0  0
 13 14  2  0  0  0
 14 15  1  0  0  0
 14 16  1  0  0  0
 16 17  2  0  0  0
 18 19  2  0  0  0
 18 23  1  0  0  0
 19 20  1  0  0  0
 20 21  2  0  0  0
 21 22  1  0  0  0
 22 23  2  0  0  0
 24 25  2  0  0  0
 24 26  1  0  0  0
 26 27  2  0  0  0
 26 30  1  0  0  0
 27 28  1  0  0  0
 28 29  2  0  0  0
 29 30  1  0  0  0
M  END
>  <CHROM.0>
-62.36799964,-74.15189470,-130.52489561,-62.32913560,-31.09137653,-60.02738676
61.20361078,-166.76852842

>  <CHROM.1>
2.20820455,-28.07342125,101.71311260,175.03218779,-2.90741893,-21.46478376
21.42547021,-12.31505116,2.95189877,0.86269463,-0.38627030

>  <Name>
F1525-2183

>  <RI>
4.43252e+07

>  <Rbt.Current_Directory>
/home/adria/Escritorio/rDock_CMTR_LC/2pxcA_model/inputs_sah

>  <Rbt.Executable>
rbdock ($Id: //depot/dev/client3/rdock/2013.1/src/exe/rbdock.cxx#4 $)

>  <Rbt.Library>
libRbt.so (2013.1, Build901 2013/11/27)

>  <Rbt.Parameter_File>
/home/adria/Escritorio/rDock_2013.1_src/data/scripts/dock.prm

>  <Rbt.Receptor>
sah_rdock.prm

>  <SCORE>
-62.7499

>  <SCORE.INTER>
-13.3694

>  <SCORE.INTER.CONST>
1

>  <SCORE.INTER.POLAR>
-1.33183

>  <SCORE.INTER.REPUL>
0.467545

>  <SCORE.INTER.ROT>
4

>  <SCORE.INTER.VDW>
-20.5789

>  <SCORE.INTER.norm>
-0.445646

>  <SCORE.INTRA>
-43.4497

>  <SCORE.INTRA.DIHEDRAL>
-88.7475

>  <SCORE.INTRA.DIHEDRAL.0>
93.6769

>  <SCORE.INTRA.POLAR>
0

>  <SCORE.INTRA.POLAR.0>
0

>  <SCORE.INTRA.REPUL>
0

>  <SCORE.INTRA.REPUL.0>
0

>  <SCORE.INTRA.VDW>
0.92403

>  <SCORE.INTRA.VDW.0>
-4.173

>  <SCORE.INTRA.norm>
-1.44832

>  <SCORE.RESTR>
0

>  <SCORE.RESTR.CAVITY>
0

>  <SCORE.RESTR.norm>
0

>  <SCORE.SYSTEM>
-5.93078

>  <SCORE.SYSTEM.CONST>
0

>  <SCORE.SYSTEM.DIHEDRAL>
7.98186

>  <SCORE.SYSTEM.POLAR>
-3.93896

>  <SCORE.SYSTEM.REPUL>
0.0405274

>  <SCORE.SYSTEM.VDW>
3.2681

>  <SCORE.SYSTEM.norm>
-0.197693

>  <SCORE.heavy>
30

>  <SCORE.norm>
-2.09166

$$$$
F1525-2183
  rDOCK(R)          3D
libRbt.so/2013.1/901 2013/11/27
 31 35  0  0  0  0  0  0  0  0999 V2000
  -17.2359   19.7546  -16.2085 O   0  0  0  0  0  0
  -18.4288   19.7697  -15.5525 C   0  0  0  0  0  0
  -19.1582   18.7564  -15.0706 C   0  0  0  0  0  0
  -20.4733   19.2315  -14.5163 C   0  0  0  0  0  0
  -20.2282   20.6577  -14.4498 N   0  0  0  0  0  0
  -19.0987   21.0244  -15.1440 C   0  0  0  0  0  0
  -18.5770   22.1174  -15.3256 O   0  0  0  0  0  0
  -20.8085   21.5714  -13.6110 C   0  0  0  0  0  0
  -20.5039   22.8394  -13.5127 N   0  0  0  0  0  0
  -21.2932   23.4236  -12.5366 C   0  0  0  0  0  0
  -22.1774   22.5579  -11.8826 C   0  0  0  0  0  0
  -22.0487   20.9928  -12.5921 S   0  0  0  0  0  0
  -23.0047   22.9905  -10.8346 C   0  0  0  0  0  0
  -22.9417   24.3352  -10.4757 C   0  0  0  0  0  0
  -23.7189   24.7774   -9.4780 F   0  0  0  0  0  0
  -22.1027   25.2288  -11.1257 C   0  0  0  0  0  0
  -21.2707   24.7827  -12.1577 C   0  0  0  0  0  0
  -21.6997   18.9610  -15.3963 C   0  0  0  0  0  0
  -22.9814   18.7014  -14.8740 C   0  0  0  0  0  0
  -24.0621   18.4183  -15.7134 C   0  0  0  0  0  0
  -23.8822   18.3704  -17.0911 C   0  0  0  0  0  0
  -22.6236   18.6157  -17.6315 C   0  0  0  0  0  0
  -21.5445   18.9150  -16.7943 C   0  0  0  0  0  0
  -18.8436   17.3076  -15.0408 C   0  0  0  0  0  0
  -19.1053   16.6856  -14.0125 O   0  0  0  0  0  0
  -18.2241   16.6627  -16.1777 C   0  0  0  0  0  0
  -17.6960   15.3908  -16.3077 C   0  0  0  0  0  0
  -17.1773   15.2956  -17.6206 C   0  0  0  0  0  0
  -17.3833   16.5243  -18.2007 C   0  0  0  0  0  0
  -18.0003   17.3643  -17.3310 O   0  0  0  0  0  0
  -17.0228   20.6936  -16.3926 H   0  0  0  0  0  0
  1  2  1  0  0  0
  1 31  1  0  0  0
  2  3  2  0  0  0
  2  6  1  0  0  0
  3  4  1  0  0  0
  3 24  1  0  0  0
  4  5  1  0  0  0
  4 18  1  0  0  0
  5  6  1  0  0  0
  5  8  1  0  0  0
  6  7  2  0  0  0
  8  9  2  0  0  0
  8 12  1  0  0  0
  9 10  1  0  0  0
 10 11  2  0  0  0
 10 17  1  0  0  0
 11 12  1  0  0  0
 11 13  1  0  0  0
 13 14  2  0  0  0
 14 15  1  0  0  0
 14 16  1  0  0  0
 16 17  2  0  0  0
 18 19  2  0  0  0
 18 23  1  0  0  0
 19 20  1  0  0  0
 20 21  2  0  0  0
 21 22  1  0  0  0
 22 23  2  0  0  0
 24 25  2  0  0  0
 24 26  1  0  0  0
 26 27  2  0  0  0
 26 30  1  0  0  0
 27 28  1  0  0  0
 28 29  2  0  0  0
 29 30  1  0  0  0
M  END
>  <CHROM.0>
-174.03983480,67.44499442,72.56689933,65.48436534,-29.99581579,62.21843448
-155.97960536,-162.72736848

>  <CHROM.1>
-179.60259018,137.48721594,147.67582412,175.14254854,170.79250098,-20.58820120
20.14606924,-14.44028521,-1.14775389,0.10003691,0.63306168

>  <Name>
F1525-2183

>  <RI>
4.43252e+07

>  <Rbt.Current_Directory>
/home/adria/Escritorio/rDock_CMTR_LC/2pxcA_model/inputs_sah

>  <Rbt.Executable>
rbdock ($Id: //depot/dev/client3/rdock/2013.1/src/exe/rbdock.cxx#4 $)

>  <Rbt.Library>
libRbt.so (2013.1, Build901 2013/11/27)

>  <Rbt.Parameter_File>
/home/adria/Escritorio/rDock_2013.1_src/data/scripts/dock.prm

>  <Rbt.Receptor>
sah_rdock.prm

>  <SCORE>
-64.6726

>  <SCORE.INTER>
-15.304

>  <SCORE.INTER.CONST>
1

>  <SCORE.INTER.POLAR>
-0.824621

>  <SCORE.INTER.REPUL>
0.0138395

>  <SCORE.INTER.ROT>
4

>  <SCORE.INTER.VDW>
-21.9695

>  <SCORE.INTER.norm>
-0.510135

>  <SCORE.INTRA>
-42.2611

>  <SCORE.INTRA.DIHEDRAL>
-85.9754

>  <SCORE.INTRA.DIHEDRAL.0>
93.6769

>  <SCORE.INTRA.POLAR>
0

>  <SCORE.INTRA.POLAR.0>
0

>  <SCORE.INTRA.REPUL>
0.0184239

>  <SCORE.INTRA.REPUL.0>
0

>  <SCORE.INTRA.VDW>
0.634451

>  <SCORE.INTRA.VDW.0>
-4.173

>  <SCORE.INTRA.norm>
-1.4087

>  <SCORE.RESTR>
0

>  <SCORE.RESTR.CAVITY>
0

>  <SCORE.RESTR.norm>
0

>  <SCORE.SYSTEM>
-7.10743

>  <SCORE.SYSTEM.CONST>
0

>  <SCORE.SYSTEM.DIHEDRAL>
6.24902

>  <SCORE.SYSTEM.POLAR>
-3.80798

>  <SCORE.SYSTEM.VDW>
2.71519

>  <SCORE.SYSTEM.norm>
-0.236914

>  <SCORE.heavy>
30

>  <SCORE.norm>
-2.15575

$$$$
F1525-2183
  rDOCK(R)          3D
libRbt.so/2013.1/901 2013/11/27
 31 35  0  0  0  0  0  0  0  0999 V2000
  -17.2957   12.7933  -16.3042 O   0  0  0  0  0  0
  -17.6975   14.0878  -16.4332 C   0  0  0  0  0  0
  -17.7860   14.8560  -17.5255 C   0  0  0  0  0  0
  -18.1727   16.2686  -17.1825 C   0  0  0  0  0  0
  -18.6095   16.0940  -15.8125 N   0  0  0  0  0  0
  -18.2466   14.8690  -15.3028 C   0  0  0  0  0  0
  -18.4233   14.3639  -14.2012 O   0  0  0  0  0  0
  -19.5085   16.8552  -15.1141 C   0  0  0  0  0  0
  -19.9321   16.6359  -13.8964 N   0  0  0  0  0  0
  -20.8540   17.6098  -13.5520 C   0  0  0  0  0  0
  -21.1357   18.5490  -14.5508 C   0  0  0  0  0  0
  -20.1388   18.2219  -15.9178 S   0  0  0  0  0  0
  -22.0870   19.5651  -14.3706 C   0  0  0  0  0  0
  -22.7340   19.6323  -13.1386 C   0  0  0  0  0  0
  -23.6481   20.5909  -12.9373 F   0  0  0  0  0  0
  -22.4541   18.7396  -12.1140 C   0  0  0  0  0  0
  -21.5160   17.7210  -12.3109 C   0  0  0  0  0  0
  -17.0364   17.2972  -17.2329 C   0  0  0  0  0  0
  -15.8719   17.1226  -18.0052 C   0  0  0  0  0  0
  -14.8425   18.0675  -17.9878 C   0  0  0  0  0  0
  -14.9461   19.1979  -17.1852 C   0  0  0  0  0  0
  -16.0836   19.3897  -16.4070 C   0  0  0  0  0  0
  -17.1215   18.4534  -16.4352 C   0  0  0  0  0  0
  -17.5429   14.4984  -18.9439 C   0  0  0  0  0  0
  -18.4570   14.6824  -19.7459 O   0  0  0  0  0  0
  -16.2794   13.9269  -19.3554 C   0  0  0  0  0  0
  -15.0191   14.0452  -18.7977 C   0  0  0  0  0  0
  -14.1346   13.3168  -19.6277 C   0  0  0  0  0  0
  -14.8977   12.8304  -20.6619 C   0  0  0  0  0  0
  -16.1935   13.2078  -20.5165 O   0  0  0  0  0  0
  -17.0039   12.5161  -17.1980 H   0  0  0  0  0  0
  1  2  1  0  0  0
  1 31  1  0  0  0
  2  3  2  0  0  0
  2  6  1  0  0  0
  3  4  1  0  0  0
  3 24  1  0  0  0
  4  5  1  0  0  0
  4 18  1  0  0  0
  5  6  1  0  0  0
  5  8  1  0  0  0
  6  7  2  0  0  0
  8  9  2  0  0  0
  8 12  1  0  0  0
  9 10  1  0  0  0
 10 11  2  0  0  0
 10 17  1  0  0  0
 11 12  1  0  0  0
 11 13  1  0  0  0
 13 14  2  0  0  0
 14 15  1  0  0  0
 14 16  1  0  0  0
 16 17  2  0  0  0
 18 19  2  0  0  0
 18 23  1  0  0  0
 19 20  1  0  0  0
 20 21  2  0  0  0
 21 22  1  0  0  0
 22 23  2  0  0  0
 24 25  2  0  0  0
 24 26  1  0  0  0
 26 27  2  0  0  0
 26 30  1  0  0  0
 27 28  1  0  0  0
 28 29  2  0  0  0
 29 30  1  0  0  0
M  END
>  <CHROM.0>
-176.56124331,-74.90728549,-165.87605983,65.55274460,-30.42832999,175.78540344
-38.53128007,-164.88718601

>  <CHROM.1>
3.99477068,122.94332374,23.77465800,176.50496695,-26.31178044,-18.41642473
16.50828810,-16.35363290,0.62440384,-0.67128303,-2.98309106

>  <Name>
F1525-2183

>  <RI>
4.43252e+07

>  <Rbt.Current_Directory>
/home/adria/Escritorio/rDock_CMTR_LC/2pxcA_model/inputs_sah

>  <Rbt.Executable>
rbdock ($Id: //depot/dev/client3/rdock/2013.1/src/exe/rbdock.cxx#4 $)

>  <Rbt.Library>
libRbt.so (2013.1, Build901 2013/11/27)

>  <Rbt.Parameter_File>
/home/adria/Escritorio/rDock_2013.1_src/data/scripts/dock.prm

>  <Rbt.Receptor>
sah_rdock.prm

>  <SCORE>
-64.2718

>  <SCORE.INTER>
-17.2836

>  <SCORE.INTER.CONST>
1

>  <SCORE.INTER.POLAR>
-0.928962

>  <SCORE.INTER.REPUL>
0

>  <SCORE.INTER.ROT>
4

>  <SCORE.INTER.VDW>
-23.5251

>  <SCORE.INTER.norm>
-0.576118

>  <SCORE.INTRA>
-39.9691

>  <SCORE.INTRA.DIHEDRAL>
-81.3161

>  <SCORE.INTRA.DIHEDRAL.0>
93.6769

>  <SCORE.INTRA.POLAR>
0

>  <SCORE.INTRA.POLAR.0>
0

>  <SCORE.INTRA.REPUL>
0

>  <SCORE.INTRA.REPUL.0>
0

>  <SCORE.INTRA.VDW>
0.688926

>  <SCORE.INTRA.VDW.0>
-4.173

>  <SCORE.INTRA.norm>
-1.3323

>  <SCORE.RESTR>
0

>  <SCORE.RESTR.CAVITY>
0

>  <SCORE.RESTR.norm>
0

>  <SCORE.SYSTEM>
-7.01911

>  <SCORE.SYSTEM.CONST>
0

>  <SCORE.SYSTEM.DIHEDRAL>
6.63298

>  <SCORE.SYSTEM.POLAR>
-3.94068

>  <SCORE.SYSTEM.REPUL>
0.0417622

>  <SCORE.SYSTEM.VDW>
2.8539

>  <SCORE.SYSTEM.norm>
-0.23397

>  <SCORE.heavy>
30

>  <SCORE.norm>
-2.14239

$$$$
F1525-2183
  rDOCK(R)          3D
libRbt.so/2013.1/901 2013/11/27
 31 35  0  0  0  0  0  0  0  0999 V2000
  -21.9353   25.6445  -13.0052 O   0  0  0  0  0  0
  -22.1416   24.3165  -12.7872 C   0  0  0  0  0  0
  -23.2784   23.6494  -12.5553 C   0  0  0  0  0  0
  -23.0208   22.1979  -12.2562 C   0  0  0  0  0  0
  -21.6410   22.0847  -12.6825 N   0  0  0  0  0  0
  -21.0589   23.3133  -12.8922 C   0  0  0  0  0  0
  -19.9278   23.6260  -13.2426 O   0  0  0  0  0  0
  -20.9869   20.9649  -13.1223 C   0  0  0  0  0  0
  -19.7783   20.9157  -13.6194 N   0  0  0  0  0  0
  -19.4833   19.6098  -13.9723 C   0  0  0  0  0  0
  -20.5102   18.6835  -13.7564 C   0  0  0  0  0  0
  -21.8387   19.4906  -13.0127 S   0  0  0  0  0  0
  -20.3809   17.3320  -14.1122 C   0  0  0  0  0  0
  -19.1711   16.9242  -14.6697 C   0  0  0  0  0  0
  -19.0185   15.6402  -15.0206 F   0  0  0  0  0  0
  -18.1194   17.8079  -14.8655 C   0  0  0  0  0  0
  -18.2656   19.1559  -14.5222 C   0  0  0  0  0  0
  -23.1383   21.7944  -10.7814 C   0  0  0  0  0  0
  -23.6867   22.6347   -9.7934 C   0  0  0  0  0  0
  -23.7350   22.2417   -8.4533 C   0  0  0  0  0  0
  -23.2205   21.0089   -8.0684 C   0  0  0  0  0  0
  -22.6663   20.1635   -9.0247 C   0  0  0  0  0  0
  -22.6315   20.5482  -10.3684 C   0  0  0  0  0  0
  -24.6732   24.1525  -12.5424 C   0  0  0  0  0  0
  -24.8843   25.2678  -13.0160 O   0  0  0  0  0  0
  -25.7381   23.3623  -11.9646 C   0  0  0  0  0  0
  -25.8996   21.9902  -11.8971 C   0  0  0  0  0  0
  -27.1428   21.7554  -11.2638 C   0  0  0  0  0  0
  -27.6840   22.9943  -11.0177 C   0  0  0  0  0  0
  -26.8505   23.9734  -11.4531 O   0  0  0  0  0  0
  -20.9646   25.7516  -13.0892 H   0  0  0  0  0  0
  1  2  1  0  0  0
  1 31  1  0  0  0
  2  3  2  0  0  0
  2  6  1  0  0  0
  3  4  1  0  0  0
  3 24  1  0  0  0
  4  5  1  0  0  0
  4 18  1  0  0  0
  5  6  1  0  0  0
  5  8  1  0  0  0
  6  7  2  0  0  0
  8  9  2  0  0  0
  8 12  1  0  0  0
  9 10  1  0  0  0
 10 11  2  0  0  0
 10 17  1  0  0  0
 11 12  1  0  0  0
 11 13  1  0  0  0
 13 14  2  0  0  0
 14 15  1  0  0  0
 14 16  1  0  0  0
 16 17  2  0  0  0
 18 19  2  0  0  0
 18 23  1  0  0  0
 19 20  1  0  0  0
 20 21  2  0  0  0
 21 22  1  0  0  0
 22 23  2  0  0  0
 24 25  2  0  0  0
 24 26  1  0  0  0
 26 27  2  0  0  0
 26 30  1  0  0  0
 27 28  1  0  0  0
 28 29  2  0  0  0
 29 30  1  0  0  0
M  END
>  <CHROM.0>
-175.83293970,-166.38092551,-3.67051775,65.92570960,-31.12424353,-55.29289399
82.73732947,-155.85436273

>  <CHROM.1>
177.22061685,13.59421227,11.48261045,173.08253630,-31.81321705,-22.36832392
21.36595296,-12.39599890,-2.57013766,-0.62408824,2.90746090

>  <Name>
F1525-2183

>  <RI>
4.43252e+07

>  <Rbt.Current_Directory>
/home/adria/Escritorio/rDock_CMTR_LC/2pxcA_model/inputs_sah

>  <Rbt.Executable>
rbdock ($Id: //depot/dev/client3/rdock/2013.1/src/exe/rbdock.cxx#4 $)

>  <Rbt.Library>
libRbt.so (2013.1, Build901 2013/11/27)

>  <Rbt.Parameter_File>
/home/adria/Escritorio/rDock_2013.1_src/data/scripts/dock.prm

>  <Rbt.Receptor>
sah_rdock.prm

>  <SCORE>
-59.9311

>  <SCORE.INTER>
-12.9374

>  <SCORE.INTER.CONST>
1

>  <SCORE.INTER.POLAR>
-1.39221

>  <SCORE.INTER.REPUL>
0.0492492

>  <SCORE.INTER.ROT>
4

>  <SCORE.INTER.VDW>
-17.8502

>  <SCORE.INTER.norm>
-0.431248

>  <SCORE.INTRA>
-41.7977

>  <SCORE.INTRA.DIHEDRAL>
-87.9649

>  <SCORE.INTRA.DIHEDRAL.0>
93.6769

>  <SCORE.INTRA.POLAR>
0

>  <SCORE.INTRA.POLAR.0>
0

>  <SCORE.INTRA.REPUL>
0

>  <SCORE.INTRA.REPUL.0>
0

>  <SCORE.INTRA.VDW>
2.1847

>  <SCORE.INTRA.VDW.0>
-4.173

>  <SCORE.INTRA.norm>
-1.39326

>  <SCORE.RESTR>
0.108114

>  <SCORE.RESTR.CAVITY>
0.108114

>  <SCORE.RESTR.norm>
0.00360381

>  <SCORE.SYSTEM>
-5.30411

>  <SCORE.SYSTEM.CONST>
0

>  <SCORE.SYSTEM.DIHEDRAL>
10.0795

>  <SCORE.SYSTEM.POLAR>
-4.20178

>  <SCORE.SYSTEM.VDW>
3.94222

>  <SCORE.SYSTEM.norm>
-0.176804

>  <SCORE.heavy>
30

>  <SCORE.norm>
-1.9977

$$$$
F1525-2183
  rDOCK(R)          3D
libRbt.so/2013.1/901 2013/11/27
 31 35  0  0  0  0  0  0  0  0999 V2000
  -24.6011   18.0061   -9.5557 O   0  0  0  0  0  0
  -23.7080   18.8257  -10.1757 C   0  0  0  0  0  0
  -23.2048   20.0023   -9.7840 C   0  0  0  0  0  0
  -22.3298   20.6139  -10.8437 C   0  0  0  0  0  0
  -22.1488   19.4757  -11.7212 N   0  0  0  0  0  0
  -23.0201   18.4515  -11.4313 C   0  0  0  0  0  0
  -23.1783   17.3509  -11.9447 O   0  0  0  0  0  0
  -21.1032   19.2273  -12.5698 C   0  0  0  0  0  0
  -20.8993   18.1300  -13.2515 N   0  0  0  0  0  0
  -19.7236   18.2529  -13.9724 C   0  0  0  0  0  0
  -19.0331   19.4571  -13.7930 C   0  0  0  0  0  0
  -19.9527   20.4743  -12.7494 S   0  0  0  0  0  0
  -17.8001   19.7083  -14.4146 C   0  0  0  0  0  0
  -17.2867   18.7208  -15.2526 C   0  0  0  0  0  0
  -16.1109   18.9315  -15.8592 F   0  0  0  0  0  0
  -17.9612   17.5299  -15.4810 C   0  0  0  0  0  0
  -19.1812   17.2838  -14.8430 C   0  0  0  0  0  0
  -22.9530   21.7746  -11.6287 C   0  0  0  0  0  0
  -24.1547   21.6580  -12.3535 C   0  0  0  0  0  0
  -24.6639   22.7312  -13.0894 C   0  0  0  0  0  0
  -23.9748   23.9379  -13.1321 C   0  0  0  0  0  0
  -22.7811   24.0759  -12.4305 C   0  0  0  0  0  0
  -22.2781   23.0084  -11.6806 C   0  0  0  0  0  0
  -23.4148   20.7333   -8.5110 C   0  0  0  0  0  0
  -22.7352   20.4014   -7.5411 O   0  0  0  0  0  0
  -24.4075   21.7810   -8.4159 C   0  0  0  0  0  0
  -25.2212   22.3344   -9.3880 C   0  0  0  0  0  0
  -25.9723   23.3557   -8.7598 C   0  0  0  0  0  0
  -25.5463   23.3922   -7.4538 C   0  0  0  0  0  0
  -24.5876   22.4554   -7.2390 O   0  0  0  0  0  0
  -24.6767   17.2146  -10.1290 H   0  0  0  0  0  0
  1  2  1  0  0  0
  1 31  1  0  0  0
  2  3  2  0  0  0
  2  6  1  0  0  0
  3  4  1  0  0  0
  3 24  1  0  0  0
  4  5  1  0  0  0
  4 18  1  0  0  0
  5  6  1  0  0  0
  5  8  1  0  0  0
  6  7  2  0  0  0
  8  9  2  0  0  0
  8 12  1  0  0  0
  9 10  1  0  0  0
 10 11  2  0  0  0
 10 17  1  0  0  0
 11 12  1  0  0  0
 11 13  1  0  0  0
 13 14  2  0  0  0
 14 15  1  0  0  0
 14 16  1  0  0  0
 16 17  2  0  0  0
 18 19  2  0  0  0
 18 23  1  0  0  0
 19 20  1  0  0  0
 20 21  2  0  0  0
 21 22  1  0  0  0
 22 23  2  0  0  0
 24 25  2  0  0  0
 24 26  1  0  0  0
 26 27  2  0  0  0
 26 30  1  0  0  0
 27 28  1  0  0  0
 28 29  2  0  0  0
 29 30  1  0  0  0
M  END
>  <CHROM.0>
-176.74953215,65.44926432,-127.45943823,63.43910872,-30.96680197,-60.98790511
83.62552184,-160.05422954

>  <CHROM.1>
-176.59029286,82.22940069,-57.63059269,172.67264269,-4.46036001,-22.00501236
20.36208138,-11.68183940,2.99846685,0.79512134,-0.33366006

>  <Name>
F1525-2183

>  <RI>
4.43252e+07

>  <Rbt.Current_Directory>
/home/adria/Escritorio/rDock_CMTR_LC/2pxcA_model/inputs_sah

>  <Rbt.Executable>
rbdock ($Id: //depot/dev/client3/rdock/2013.1/src/exe/rbdock.cxx#4 $)

>  <Rbt.Library>
libRbt.so (2013.1, Build901 2013/11/27)

>  <Rbt.Parameter_File>
/home/adria/Escritorio/rDock_2013.1_src/data/scripts/dock.prm

>  <Rbt.Receptor>
sah_rdock.prm

>  <SCORE>
-61.7155

>  <SCORE.INTER>
-14.9624

>  <SCORE.INTER.CONST>
1

>  <SCORE.INTER.POLAR>
-1.07416

>  <SCORE.INTER.REPUL>
0.192868

>  <SCORE.INTER.ROT>
4

>  <SCORE.INTER.VDW>
-21.6746

>  <SCORE.INTER.norm>
-0.498747

>  <SCORE.INTRA>
-40.522

>  <SCORE.INTRA.DIHEDRAL>
-80.2122

>  <SCORE.INTRA.DIHEDRAL.0>
93.6769

>  <SCORE.INTRA.POLAR>
0

>  <SCORE.INTRA.POLAR.0>
0

>  <SCORE.INTRA.REPUL>
0

>  <SCORE.INTRA.REPUL.0>
0

>  <SCORE.INTRA.VDW>
-0.415841

>  <SCORE.INTRA.VDW.0>
-4.173

>  <SCORE.INTRA.norm>
-1.35073

>  <SCORE.RESTR>
0

>  <SCORE.RESTR.CAVITY>
0

>  <SCORE.RESTR.norm>
0

>  <SCORE.SYSTEM>
-6.23111

>  <SCORE.SYSTEM.CONST>
0

>  <SCORE.SYSTEM.DIHEDRAL>
8.90945

>  <SCORE.SYSTEM.POLAR>
-4.18609

>  <SCORE.SYSTEM.VDW>
3.54688

>  <SCORE.SYSTEM.norm>
-0.207704

>  <SCORE.heavy>
30

>  <SCORE.norm>
-2.05718

$$$$
F1525-2183
  rDOCK(R)          3D
libRbt.so/2013.1/901 2013/11/27
 31 35  0  0  0  0  0  0  0  0999 V2000
  -16.8575   20.5622  -16.7663 O   0  0  0  0  0  0
  -17.9404   20.2937  -15.9860 C   0  0  0  0  0  0
  -18.3906   19.1260  -15.5119 C   0  0  0  0  0  0
  -19.6957   19.2876  -14.7818 C   0  0  0  0  0  0
  -19.7310   20.7274  -14.6266 N   0  0  0  0  0  0
  -18.7899   21.3580  -15.4069 C   0  0  0  0  0  0
  -18.5207   22.5436  -15.5545 O   0  0  0  0  0  0
  -20.3733   21.4524  -13.6586 C   0  0  0  0  0  0
  -20.2559   22.7369  -13.4432 N   0  0  0  0  0  0
  -21.0437   23.0918  -12.3614 C   0  0  0  0  0  0
  -21.7327   22.0380  -11.7498 C   0  0  0  0  0  0
  -21.4273   20.5892  -12.6313 S   0  0  0  0  0  0
  -22.5294   22.2309  -10.6106 C   0  0  0  0  0  0
  -22.6409   23.5274  -10.1130 C   0  0  0  0  0  0
  -23.3937   23.7425   -9.0257 F   0  0  0  0  0  0
  -22.0002   24.6010  -10.7146 C   0  0  0  0  0  0
  -21.1956   24.3941  -11.8398 C   0  0  0  0  0  0
  -20.9428   18.8217  -15.5431 C   0  0  0  0  0  0
  -21.9447   18.0194  -14.9639 C   0  0  0  0  0  0
  -23.0439   17.5831  -15.7084 C   0  0  0  0  0  0
  -23.1568   17.9234  -17.0516 C   0  0  0  0  0  0
  -22.1759   18.7089  -17.6491 C   0  0  0  0  0  0
  -21.0835   19.1598  -16.9019 C   0  0  0  0  0  0
  -17.7946   17.7736  -15.6341 C   0  0  0  0  0  0
  -18.4702   16.8144  -15.2649 O   0  0  0  0  0  0
  -16.4525   17.6013  -16.1453 C   0  0  0  0  0  0
  -15.8434   16.4932  -16.7062 C   0  0  0  0  0  0
  -14.5077   16.8618  -16.9921 C   0  0  0  0  0  0
  -14.3687   18.1570  -16.5544 C   0  0  0  0  0  0
  -15.5342   18.6085  -16.0247 O   0  0  0  0  0  0
  -16.6649   21.5142  -16.6339 H   0  0  0  0  0  0
  1  2  1  0  0  0
  1 31  1  0  0  0
  2  3  2  0  0  0
  2  6  1  0  0  0
  3  4  1  0  0  0
  3 24  1  0  0  0
  4  5  1  0  0  0
  4 18  1  0  0  0
  5  6  1  0  0  0
  5  8  1  0  0  0
  6  7  2  0  0  0
  8  9  2  0  0  0
  8 12  1  0  0  0
  9 10  1  0  0  0
 10 11  2  0  0  0
 10 17  1  0  0  0
 11 12  1  0  0  0
 11 13  1  0  0  0
 13 14  2  0  0  0
 14 15  1  0  0  0
 14 16  1  0  0  0
 16 17  2  0  0  0
 18 19  2  0  0  0
 18 23  1  0  0  0
 19 20  1  0  0  0
 20 21  2  0  0  0
 21 22  1  0  0  0
 22 23  2  0  0  0
 24 25  2  0  0  0
 24 26  1  0  0  0
 26 27  2  0  0  0
 26 30  1  0  0  0
 27 28  1  0  0  0
 28 29  2  0  0  0
 29 30  1  0  0  0
M  END
>  <CHROM.0>
-61.57586073,-72.97460157,-131.12702921,63.28615934,-30.69342825,-57.01439549
-157.59424369,-162.59067445

>  <CHROM.1>
-159.71459085,-170.85923003,133.47523136,170.92500499,-158.63996445,-19.78617727
20.21859346,-14.41569446,-0.93811269,0.15305876,0.70203045

>  <Name>
F1525-2183

>  <RI>
4.43252e+07

>  <Rbt.Current_Directory>
/home/adria/Escritorio/rDock_CMTR_LC/2pxcA_model/inputs_sah

>  <Rbt.Executable>
rbdock ($Id: //depot/dev/client3/rdock/2013.1/src/exe/rbdock.cxx#4 $)

>  <Rbt.Library>
libRbt.so (2013.1, Build901 2013/11/27)

>  <Rbt.Parameter_File>
/home/adria/Escritorio/rDock_2013.1_src/data/scripts/dock.prm

>  <Rbt.Receptor>
sah_rdock.prm

>  <SCORE>
-65.2102

>  <SCORE.INTER>
-15.7861

>  <SCORE.INTER.CONST>
1

>  <SCORE.INTER.POLAR>
-0.989992

>  <SCORE.INTER.REPUL>
0

>  <SCORE.INTER.ROT>
4

>  <SCORE.INTER.VDW>
-21.8201

>  <SCORE.INTER.norm>
-0.526203

>  <SCORE.INTRA>
-42.1008

>  <SCORE.INTRA.DIHEDRAL>
-87.0168

>  <SCORE.INTRA.DIHEDRAL.0>
93.6769

>  <SCORE.INTRA.POLAR>
0

>  <SCORE.INTRA.POLAR.0>
0

>  <SCORE.INTRA.REPUL>
0.0121241

>  <SCORE.INTRA.REPUL.0>
0

>  <SCORE.INTRA.VDW>
1.34699

>  <SCORE.INTRA.VDW.0>
-4.173

>  <SCORE.INTRA.norm>
-1.40336

>  <SCORE.RESTR>
0

>  <SCORE.RESTR.CAVITY>
0

>  <SCORE.RESTR.norm>
0

>  <SCORE.SYSTEM>
-7.32334

>  <SCORE.SYSTEM.CONST>
0

>  <SCORE.SYSTEM.DIHEDRAL>
9.19187

>  <SCORE.SYSTEM.POLAR>
-4.54801

>  <SCORE.SYSTEM.REPUL>
0.0384901

>  <SCORE.SYSTEM.VDW>
3.35151

>  <SCORE.SYSTEM.norm>
-0.244111

>  <SCORE.heavy>
30

>  <SCORE.norm>
-2.17367

$$$$
F1525-2183
  rDOCK(R)          3D
libRbt.so/2013.1/901 2013/11/27
 31 35  0  0  0  0  0  0  0  0999 V2000
  -25.1125   24.2415  -11.7055 O   0  0  0  0  0  0
  -23.8298   23.8060  -11.5685 C   0  0  0  0  0  0
  -23.0794   23.6738  -10.4683 C   0  0  0  0  0  0
  -21.6716   23.2616  -10.8010 C   0  0  0  0  0  0
  -21.8371   22.8610  -12.1833 N   0  0  0  0  0  0
  -23.0459   23.2648  -12.7008 C   0  0  0  0  0  0
  -23.5393   23.1260  -13.8131 O   0  0  0  0  0  0
  -21.0875   21.9606  -12.8922 C   0  0  0  0  0  0
  -21.3098   21.5574  -14.1163 N   0  0  0  0  0  0
  -20.3488   20.6259  -14.4712 C   0  0  0  0  0  0
  -19.4166   20.3163  -13.4741 C   0  0  0  0  0  0
  -19.7325   21.2988  -12.0941 S   0  0  0  0  0  0
  -18.4143   19.3526  -13.6651 C   0  0  0  0  0  0
  -18.3534   18.7219  -14.9058 C   0  0  0  0  0  0
  -17.4080   17.7965  -15.1175 F   0  0  0  0  0  0
  -19.2391   19.0294  -15.9286 C   0  0  0  0  0  0
  -20.2442   19.9797  -15.7212 C   0  0  0  0  0  0
  -20.6173   24.3715  -10.7099 C   0  0  0  0  0  0
  -19.2755   24.1331  -10.3554 C   0  0  0  0  0  0
  -18.3584   25.1815  -10.2437 C   0  0  0  0  0  0
  -18.7658   26.4920  -10.4659 C   0  0  0  0  0  0
  -20.0883   26.7545  -10.8100 C   0  0  0  0  0  0
  -21.0036   25.7053  -10.9379 C   0  0  0  0  0  0
  -23.4512   23.8923   -9.0495 C   0  0  0  0  0  0
  -22.6005   24.3717   -8.3017 O   0  0  0  0  0  0
  -24.7635   23.5248   -8.5648 C   0  0  0  0  0  0
  -25.9364   23.2779   -9.2553 C   0  0  0  0  0  0
  -26.9309   23.0030   -8.2872 C   0  0  0  0  0  0
  -26.3181   23.1362   -7.0644 C   0  0  0  0  0  0
  -25.0111   23.4685   -7.2202 O   0  0  0  0  0  0
  -25.3155   24.1713  -12.6620 H   0  0  0  0  0  0
  1  2  1  0  0  0
  1 31  1  0  0  0
  2  3  2  0  0  0
  2  6  1  0  0  0
  3  4  1  0  0  0
  3 24  1  0  0  0
  4  5  1  0  0  0
  4 18  1  0  0  0
  5  6  1  0  0  0
  5  8  1  0  0  0
  6  7  2  0  0  0
  8  9  2  0  0  0
  8 12  1  0  0  0
  9 10  1  0  0  0
 10 11  2  0  0  0
 10 17  1  0  0  0
 11 12  1  0  0  0
 11 13  1  0  0  0
 13 14  2  0  0  0
 14 15  1  0  0  0
 14 16  1  0  0  0
 16 17  2  0  0  0
 18 19  2  0  0  0
 18 23  1  0  0  0
 19 20  1  0  0  0
 20 21  2  0  0  0
 21 22  1  0  0  0
 22 23  2  0  0  0
 24 25  2  0  0  0
 24 26  1  0  0  0
 26 27  2  0  0  0
 26 30  1  0  0  0
 27 28  1  0  0  0
 28 29  2  0  0  0
 29 30  1  0  0  0
M  END
>  <CHROM.0>
179.62046651,-72.27951873,-45.24143060,68.35677396,-30.35544050,-60.95333882
-36.45068960,-162.38199555

>  <CHROM.1>
-178.47000556,-143.98740977,148.86943188,175.52110210,-18.37966205,-21.61615357
22.64282053,-11.60320556,2.26762671,0.30130092,0.66803283

>  <Name>
F1525-2183

>  <RI>
4.43252e+07

>  <Rbt.Current_Directory>
/home/adria/Escritorio/rDock_CMTR_LC/2pxcA_model/inputs_sah

>  <Rbt.Executable>
rbdock ($Id: //depot/dev/client3/rdock/2013.1/src/exe/rbdock.cxx#4 $)

>  <Rbt.Library>
libRbt.so (2013.1, Build901 2013/11/27)

>  <Rbt.Parameter_File>
/home/adria/Escritorio/rDock_2013.1_src/data/scripts/dock.prm

>  <Rbt.Receptor>
sah_rdock.prm

>  <SCORE>
-55.2766

>  <SCORE.INTER>
-6.40431

>  <SCORE.INTER.CONST>
1

>  <SCORE.INTER.POLAR>
0

>  <SCORE.INTER.REPUL>
0.00512441

>  <SCORE.INTER.ROT>
4

>  <SCORE.INTER.VDW>
-15.8299

>  <SCORE.INTER.norm>
-0.213477

>  <SCORE.INTRA>
-42.0481

>  <SCORE.INTRA.DIHEDRAL>
-86.4937

>  <SCORE.INTRA.DIHEDRAL.0>
93.6769

>  <SCORE.INTRA.POLAR>
0

>  <SCORE.INTRA.POLAR.0>
0

>  <SCORE.INTRA.REPUL>
0

>  <SCORE.INTRA.REPUL.0>
0

>  <SCORE.INTRA.VDW>
1.19875

>  <SCORE.INTRA.VDW.0>
-4.173

>  <SCORE.INTRA.norm>
-1.4016

>  <SCORE.RESTR>
0.291779

>  <SCORE.RESTR.CAVITY>
0.291779

>  <SCORE.RESTR.norm>
0.00972596

>  <SCORE.SYSTEM>
-7.11593

>  <SCORE.SYSTEM.CONST>
0

>  <SCORE.SYSTEM.DIHEDRAL>
6.74844

>  <SCORE.SYSTEM.POLAR>
-3.99333

>  <SCORE.SYSTEM.REPUL>
0.0372236

>  <SCORE.SYSTEM.VDW>
2.90104

>  <SCORE.SYSTEM.norm>
-0.237198

>  <SCORE.heavy>
30

>  <SCORE.norm>
-1.84255

$$$$
F1525-2183
  rDOCK(R)          3D
libRbt.so/2013.1/901 2013/11/27
 31 35  0  0  0  0  0  0  0  0999 V2000
  -24.7962   19.0667  -11.9104 O   0  0  0  0  0  0
  -23.6294   19.7302  -12.1384 C   0  0  0  0  0  0
  -22.8403   20.3991  -11.2893 C   0  0  0  0  0  0
  -21.7027   21.0766  -12.0029 C   0  0  0  0  0  0
  -21.7766   20.4210  -13.2925 N   0  0  0  0  0  0
  -22.9467   19.7154  -13.4512 C   0  0  0  0  0  0
  -23.3722   19.0497  -14.3869 O   0  0  0  0  0  0
  -20.7650   20.2257  -14.1946 C   0  0  0  0  0  0
  -20.8354   19.5372  -15.3042 N   0  0  0  0  0  0
  -19.5998   19.5517  -15.9290 C   0  0  0  0  0  0
  -18.5911   20.2423  -15.2474 C   0  0  0  0  0  0
  -19.2647   20.9511  -13.8284 S   0  0  0  0  0  0
  -17.2736   20.3011  -15.7275 C   0  0  0  0  0  0
  -16.9985   19.6665  -16.9368 C   0  0  0  0  0  0
  -15.7494   19.7044  -17.4200 F   0  0  0  0  0  0
  -17.9816   19.0027  -17.6566 C   0  0  0  0  0  0
  -19.2874   18.9367  -17.1600 C   0  0  0  0  0  0
  -21.8452   22.5923  -12.1875 C   0  0  0  0  0  0
  -20.9851   23.5273  -11.5799 C   0  0  0  0  0  0
  -21.1784   24.9017  -11.7423 C   0  0  0  0  0  0
  -22.2450   25.3720  -12.4997 C   0  0  0  0  0  0
  -23.1136   24.4683  -13.1041 C   0  0  0  0  0  0
  -22.9126   23.0926  -12.9561 C   0  0  0  0  0  0
  -22.9645   20.5532   -9.8196 C   0  0  0  0  0  0
  -22.5130   19.6562   -9.1094 O   0  0  0  0  0  0
  -23.6211   21.7098   -9.2510 C   0  0  0  0  0  0
  -24.2292   22.7879   -9.8685 C   0  0  0  0  0  0
  -24.6700   23.6532   -8.8395 C   0  0  0  0  0  0
  -24.2719   23.0736   -7.6589 C   0  0  0  0  0  0
  -23.6213   21.9061   -7.8968 O   0  0  0  0  0  0
  -25.0288   18.6396  -12.7615 H   0  0  0  0  0  0
  1  2  1  0  0  0
  1 31  1  0  0  0
  2  3  2  0  0  0
  2  6  1  0  0  0
  3  4  1  0  0  0
  3 24  1  0  0  0
  4  5  1  0  0  0
  4 18  1  0  0  0
  5  6  1  0  0  0
  5  8  1  0  0  0
  6  7  2  0  0  0
  8  9  2  0  0  0
  8 12  1  0  0  0
  9 10  1  0  0  0
 10 11  2  0  0  0
 10 17  1  0  0  0
 11 12  1  0  0  0
 11 13  1  0  0  0
 13 14  2  0  0  0
 14 15  1  0  0  0
 14 16  1  0  0  0
 16 17  2  0  0  0
 18 19  2  0  0  0
 18 23  1  0  0  0
 19 20  1  0  0  0
 20 21  2  0  0  0
 21 22  1  0  0  0
 22 23  2  0  0  0
 24 25  2  0  0  0
 24 26  1  0  0  0
 26 27  2  0  0  0
 26 30  1  0  0  0
 27 28  1  0  0  0
 28 29  2  0  0  0
 29 30  1  0  0  0
M  END
>  <CHROM.0>
-179.04185650,-166.31702807,-172.63102571,63.81956769,167.78594820,-57.93764370
83.53493134,-163.33590827

>  <CHROM.1>
-175.00418443,83.66008659,115.06956546,174.13555795,1.24595695,-21.40426864
21.10259474,-12.86943930,2.54636582,0.73063518,0.42808723

>  <Name>
F1525-2183

>  <RI>
4.43252e+07

>  <Rbt.Current_Directory>
/home/adria/Escritorio/rDock_CMTR_LC/2pxcA_model/inputs_sah

>  <Rbt.Executable>
rbdock ($Id: //depot/dev/client3/rdock/2013.1/src/exe/rbdock.cxx#4 $)

>  <Rbt.Library>
libRbt.so (2013.1, Build901 2013/11/27)

>  <Rbt.Parameter_File>
/home/adria/Escritorio/rDock_2013.1_src/data/scripts/dock.prm

>  <Rbt.Receptor>
sah_rdock.prm

>  <SCORE>
-58.388

>  <SCORE.INTER>
-17.3631

>  <SCORE.INTER.CONST>
1

>  <SCORE.INTER.POLAR>
-1.68477

>  <SCORE.INTER.REPUL>
0.136133

>  <SCORE.INTER.ROT>
4

>  <SCORE.INTER.VDW>
-21.7156

>  <SCORE.INTER.norm>
-0.578771

>  <SCORE.INTRA>
-40.3956

>  <SCORE.INTRA.DIHEDRAL>
-80.0069

>  <SCORE.INTRA.DIHEDRAL.0>
93.6769

>  <SCORE.INTRA.POLAR>
0

>  <SCORE.INTRA.POLAR.0>
0

>  <SCORE.INTRA.REPUL>
0

>  <SCORE.INTRA.REPUL.0>
0

>  <SCORE.INTRA.VDW>
-0.392184

>  <SCORE.INTRA.VDW.0>
-4.173

>  <SCORE.INTRA.norm>
-1.34652

>  <SCORE.RESTR>
0

>  <SCORE.RESTR.CAVITY>
0

>  <SCORE.RESTR.norm>
0

>  <SCORE.SYSTEM>
-0.629263

>  <SCORE.SYSTEM.CONST>
0

>  <SCORE.SYSTEM.DIHEDRAL>
3.41278

>  <SCORE.SYSTEM.POLAR>
-3.39271

>  <SCORE.SYSTEM.VDW>
9.19954

>  <SCORE.SYSTEM.norm>
-0.0209754

>  <SCORE.heavy>
30

>  <SCORE.norm>
-1.94627

$$$$
F1525-2183
  rDOCK(R)          3D
libRbt.so/2013.1/901 2013/11/27
 31 35  0  0  0  0  0  0  0  0999 V2000
  -18.4929   14.2391  -15.6940 O   0  0  0  0  0  0
  -18.3912   15.5856  -15.8683 C   0  0  0  0  0  0
  -18.1411   16.2929  -16.9765 C   0  0  0  0  0  0
  -18.0059   17.7615  -16.6807 C   0  0  0  0  0  0
  -18.5436   17.8073  -15.3364 N   0  0  0  0  0  0
  -18.6751   16.5537  -14.7857 C   0  0  0  0  0  0
  -19.0771   16.1876  -13.6883 O   0  0  0  0  0  0
  -19.1389   18.8669  -14.7056 C   0  0  0  0  0  0
  -19.7043   18.8517  -13.5264 N   0  0  0  0  0  0
  -20.2139   20.1088  -13.2488 C   0  0  0  0  0  0
  -20.0446   21.0614  -14.2603 C   0  0  0  0  0  0
  -19.1449   20.3513  -15.5470 S   0  0  0  0  0  0
  -20.5531   22.3648  -14.1483 C   0  0  0  0  0  0
  -21.2177   22.6994  -12.9705 C   0  0  0  0  0  0
  -21.7152   23.9360  -12.8351 F   0  0  0  0  0  0
  -21.3731   21.7910  -11.9332 C   0  0  0  0  0  0
  -20.8765   20.4900  -12.0628 C   0  0  0  0  0  0
  -16.5731   18.3080  -16.6804 C   0  0  0  0  0  0
  -15.4386   17.4975  -16.8781 C   0  0  0  0  0  0
  -14.1485   18.0322  -16.8276 C   0  0  0  0  0  0
  -13.9630   19.3839  -16.5609 C   0  0  0  0  0  0
  -15.0677   20.2044  -16.3545 C   0  0  0  0  0  0
  -16.3599   19.6746  -16.4203 C   0  0  0  0  0  0
  -17.9742   15.8193  -18.3718 C   0  0  0  0  0  0
  -17.3488   16.5379  -19.1497 O   0  0  0  0  0  0
  -18.5551   14.5661  -18.8009 C   0  0  0  0  0  0
  -19.2903   13.6314  -18.0942 C   0  0  0  0  0  0
  -19.5714   12.5714  -18.9882 C   0  0  0  0  0  0
  -18.9599   12.9017  -20.1737 C   0  0  0  0  0  0
  -18.3277   14.0982  -20.0665 O   0  0  0  0  0  0
  -18.6848   14.1088  -14.7416 H   0  0  0  0  0  0
  1  2  1  0  0  0
  1 31  1  0  0  0
  2  3  2  0  0  0
  2  6  1  0  0  0
  3  4  1  0  0  0
  3 24  1  0  0  0
  4  5  1  0  0  0
  4 18  1  0  0  0
  5  6  1  0  0  0
  5  8  1  0  0  0
  6  7  2  0  0  0
  8  9  2  0  0  0
  8 12  1  0  0  0
  9 10  1  0  0  0
 10 11  2  0  0  0
 10 17  1  0  0  0
 11 12  1  0  0  0
 11 13  1  0  0  0
 13 14  2  0  0  0
 14 15  1  0  0  0
 14 16  1  0  0  0
 16 17  2  0  0  0
 18 19  2  0  0  0
 18 23  1  0  0  0
 19 20  1  0  0  0
 20 21  2  0  0  0
 21 22  1  0  0  0
 22 23  2  0  0  0
 24 25  2  0  0  0
 24 26  1  0  0  0
 26 27  2  0  0  0
 26 30  1  0  0  0
 27 28  1  0  0  0
 28 29  2  0  0  0
 29 30  1  0  0  0
M  END
>  <CHROM.0>
-64.62749897,-168.22141165,-47.53773979,63.46601333,167.52172834,-57.88374832
-157.12393353,-163.05113443

>  <CHROM.1>
-179.93911180,-157.40067212,-2.92532429,174.55808167,-0.90334104,-18.56006838
18.04940512,-15.89142743,1.27198536,-0.43194594,-2.64679901

>  <Name>
F1525-2183

>  <RI>
4.43252e+07

>  <Rbt.Current_Directory>
/home/adria/Escritorio/rDock_CMTR_LC/2pxcA_model/inputs_sah

>  <Rbt.Executable>
rbdock ($Id: //depot/dev/client3/rdock/2013.1/src/exe/rbdock.cxx#4 $)

>  <Rbt.Library>
libRbt.so (2013.1, Build901 2013/11/27)

>  <Rbt.Parameter_File>
/home/adria/Escritorio/rDock_2013.1_src/data/scripts/dock.prm

>  <Rbt.Receptor>
sah_rdock.prm

>  <SCORE>
-58.9275

>  <SCORE.INTER>
-15.3728

>  <SCORE.INTER.CONST>
1

>  <SCORE.INTER.POLAR>
-0.674679

>  <SCORE.INTER.REPUL>
0

>  <SCORE.INTER.ROT>
4

>  <SCORE.INTER.VDW>
-22.4789

>  <SCORE.INTER.norm>
-0.512426

>  <SCORE.INTRA>
-41.9283

>  <SCORE.INTRA.DIHEDRAL>
-89.5577

>  <SCORE.INTRA.DIHEDRAL.0>
93.6769

>  <SCORE.INTRA.POLAR>
0

>  <SCORE.INTRA.POLAR.0>
0

>  <SCORE.INTRA.REPUL>
0

>  <SCORE.INTRA.REPUL.0>
0

>  <SCORE.INTRA.VDW>
2.85057

>  <SCORE.INTRA.VDW.0>
-4.173

>  <SCORE.INTRA.norm>
-1.39761

>  <SCORE.RESTR>
0

>  <SCORE.RESTR.CAVITY>
0

>  <SCORE.RESTR.norm>
0

>  <SCORE.SYSTEM>
-1.62645

>  <SCORE.SYSTEM.CONST>
0

>  <SCORE.SYSTEM.DIHEDRAL>
3.50197

>  <SCORE.SYSTEM.POLAR>
-3.65444

>  <SCORE.SYSTEM.VDW>
9.04764

>  <SCORE.SYSTEM.norm>
-0.0542151

>  <SCORE.heavy>
30

>  <SCORE.norm>
-1.96425

$$$$
F1525-2183
  rDOCK(R)          3D
libRbt.so/2013.1/901 2013/11/27
 31 35  0  0  0  0  0  0  0  0999 V2000
  -17.2405   20.6702  -16.8845 O   0  0  0  0  0  0
  -18.2658   20.2516  -16.0925 C   0  0  0  0  0  0
  -18.6156   19.0144  -15.7208 C   0  0  0  0  0  0
  -19.8930   19.0122  -14.9265 C   0  0  0  0  0  0
  -20.0156   20.4239  -14.6259 N   0  0  0  0  0  0
  -19.1555   21.1921  -15.3758 C   0  0  0  0  0  0
  -18.9720   22.4024  -15.4140 O   0  0  0  0  0  0
  -20.6582   21.0040  -13.5650 C   0  0  0  0  0  0
  -21.3922   20.3923  -12.6720 N   0  0  0  0  0  0
  -21.8906   21.3230  -11.7763 C   0  0  0  0  0  0
  -21.5382   22.6527  -12.0348 C   0  0  0  0  0  0
  -20.4846   22.6931  -13.3977 S   0  0  0  0  0  0
  -22.0091   23.7145  -11.2469 C   0  0  0  0  0  0
  -22.8281   23.4012  -10.1644 C   0  0  0  0  0  0
  -23.2941   24.3939   -9.3947 F   0  0  0  0  0  0
  -23.1689   22.0916   -9.8580 C   0  0  0  0  0  0
  -22.7071   21.0429  -10.6600 C   0  0  0  0  0  0
  -21.1409   18.5366  -15.6804 C   0  0  0  0  0  0
  -22.0402   17.5858  -15.1604 C   0  0  0  0  0  0
  -23.1423   17.1503  -15.9009 C   0  0  0  0  0  0
  -23.3599   17.6412  -17.1833 C   0  0  0  0  0  0
  -22.4813   18.5758  -17.7225 C   0  0  0  0  0  0
  -21.3870   19.0248  -16.9771 C   0  0  0  0  0  0
  -17.9384   17.7256  -16.0021 C   0  0  0  0  0  0
  -18.5927   16.6930  -15.8665 O   0  0  0  0  0  0
  -16.5467   17.6928  -16.3951 C   0  0  0  0  0  0
  -15.7664   16.6407  -16.8396 C   0  0  0  0  0  0
  -14.4636   17.1544  -17.0410 C   0  0  0  0  0  0
  -14.5152   18.4770  -16.6714 C   0  0  0  0  0  0
  -15.7664   18.8090  -16.2627 O   0  0  0  0  0  0
  -16.7303   19.8631  -17.1061 H   0  0  0  0  0  0
  1  2  1  0  0  0
  1 31  1  0  0  0
  2  3  2  0  0  0
  2  6  1  0  0  0
  3  4  1  0  0  0
  3 24  1  0  0  0
  4  5  1  0  0  0
  4 18  1  0  0  0
  5  6  1  0  0  0
  5  8  1  0  0  0
  6  7  2  0  0  0
  8  9  2  0  0  0
  8 12  1  0  0  0
  9 10  1  0  0  0
 10 11  2  0  0  0
 10 17  1  0  0  0
 11 12  1  0  0  0
 11 13  1  0  0  0
 13 14  2  0  0  0
 14 15  1  0  0  0
 14 16  1  0  0  0
 16 17  2  0  0  0
 18 19  2  0  0  0
 18 23  1  0  0  0
 19 20  1  0  0  0
 20 21  2  0  0  0
 21 22  1  0  0  0
 22 23  2  0  0  0
 24 25  2  0  0  0
 24 26  1  0  0  0
 26 27  2  0  0  0
 26 30  1  0  0  0
 27 28  1  0  0  0
 28 29  2  0  0  0
 29 30  1  0  0  0
M  END
>  <CHROM.0>
38.45799391,-73.37092657,-129.72810145,-62.54051862,-30.89033061,-59.46566389
81.48529986,-162.82973997

>  <CHROM.1>
-3.82501960,-161.73728322,131.67458998,-6.48607742,-172.09102783,-19.97822845
20.08820240,-14.50836800,-0.92860912,0.18451410,0.72979631

>  <Name>
F1525-2183

>  <RI>
4.43252e+07

>  <Rbt.Current_Directory>
/home/adria/Escritorio/rDock_CMTR_LC/2pxcA_model/inputs_sah

>  <Rbt.Executable>
rbdock ($Id: //depot/dev/client3/rdock/2013.1/src/exe/rbdock.cxx#4 $)

>  <Rbt.Library>
libRbt.so (2013.1, Build901 2013/11/27)

>  <Rbt.Parameter_File>
/home/adria/Escritorio/rDock_2013.1_src/data/scripts/dock.prm

>  <Rbt.Receptor>
sah_rdock.prm

>  <SCORE>
-60.1322

>  <SCORE.INTER>
-16.1418

>  <SCORE.INTER.CONST>
1

>  <SCORE.INTER.POLAR>
-0.84926

>  <SCORE.INTER.REPUL>
0

>  <SCORE.INTER.ROT>
4

>  <SCORE.INTER.VDW>
-22.6543

>  <SCORE.INTER.norm>
-0.538058

>  <SCORE.INTRA>
-41.4458

>  <SCORE.INTRA.DIHEDRAL>
-89.5776

>  <SCORE.INTRA.DIHEDRAL.0>
93.6769

>  <SCORE.INTRA.POLAR>
-0.705956

>  <SCORE.INTRA.POLAR.0>
0

>  <SCORE.INTRA.REPUL>
0

>  <SCORE.INTRA.REPUL.0>
0

>  <SCORE.INTRA.VDW>
5.74328

>  <SCORE.INTRA.VDW.0>
-4.173

>  <SCORE.INTRA.norm>
-1.38153

>  <SCORE.RESTR>
0

>  <SCORE.RESTR.CAVITY>
0

>  <SCORE.RESTR.norm>
0

>  <SCORE.SYSTEM>
-2.54468

>  <SCORE.SYSTEM.CONST>
0

>  <SCORE.SYSTEM.DIHEDRAL>
11.1826

>  <SCORE.SYSTEM.POLAR>
-4.40261

>  <SCORE.SYSTEM.REPUL>
0.16723

>  <SCORE.SYSTEM.VDW>
5.99673

>  <SCORE.SYSTEM.norm>
-0.0848228

>  <SCORE.heavy>
30

>  <SCORE.norm>
-2.00441

$$$$
