F1172-0033
  rDOCK(R)          3D
libRbt.so/2013.1/901 2013/11/27
 29 32  0  0  0  0  0  0  0  0999 V2000
  -22.8182   26.3069  -11.4644 F   0  0  0  0  0  0
  -22.4832   25.0402  -11.7407 C   0  0  0  0  0  0
  -22.1020   24.1910  -10.7108 C   0  0  0  0  0  0
  -21.7389   22.8727  -11.0008 C   0  0  0  0  0  0
  -21.7526   22.3981  -12.3203 C   0  0  0  0  0  0
  -21.3351   21.1059  -12.6712 N   0  0  0  0  0  0
  -20.4022   20.7358  -13.6131 C   0  0  0  0  0  0
  -20.0947   19.4482  -13.9032 C   0  0  0  0  0  0
  -20.8376   18.3690  -13.1865 C   0  0  0  0  0  0
  -20.2332   17.5715  -12.4733 O   0  0  0  0  0  0
  -22.3168   18.2641  -13.3383 C   0  0  0  0  0  0
  -23.0976   17.3863  -12.5762 C   0  0  0  0  0  0
  -24.4835   17.3434  -12.7642 C   0  0  0  0  0  0
  -25.0924   18.1748  -13.7053 C   0  0  0  0  0  0
  -24.3213   19.0588  -14.4567 C   0  0  0  0  0  0
  -22.9390   19.1082  -14.2695 C   0  0  0  0  0  0
  -18.9644   19.1394  -14.8067 C   0  0  0  0  0  0
  -18.2286   20.1930  -15.3708 C   0  0  0  0  0  0
  -17.1139   19.9503  -16.1834 C   0  0  0  0  0  0
  -16.7273   18.6400  -16.4520 C   0  0  0  0  0  0
  -17.4592   17.5802  -15.9198 C   0  0  0  0  0  0
  -18.5704   17.8262  -15.1051 C   0  0  0  0  0  0
  -18.6354   21.5843  -15.0802 C   0  0  0  0  0  0
  -18.0487   22.5478  -15.5690 O   0  0  0  0  0  0
  -19.6946   21.7414  -14.2267 N   0  3  0  0  0  0
  -19.9405   22.6949  -13.9919 H   0  0  0  0  0  0
  -22.1507   23.2773  -13.3409 C   0  0  0  0  0  0
  -22.5143   24.5949  -13.0542 C   0  0  0  0  0  0
  -21.7939   20.3317  -12.2004 H   0  0  0  0  0  0
  1  2  1  0  0  0
  2  3  2  0  0  0
  2 28  1  0  0  0
  3  4  1  0  0  0
  4  5  2  0  0  0
  5  6  1  0  0  0
  5 27  1  0  0  0
  6  7  1  0  0  0
  6 29  1  0  0  0
  7  8  2  0  0  0
  7 25  1  0  0  0
  8  9  1  0  0  0
  8 17  1  0  0  0
  9 10  2  0  0  0
  9 11  1  0  0  0
 11 12  2  0  0  0
 11 16  1  0  0  0
 12 13  1  0  0  0
 13 14  2  0  0  0
 14 15  1  0  0  0
 15 16  2  0  0  0
 17 18  2  0  0  0
 17 22  1  0  0  0
 18 19  1  0  0  0
 18 23  1  0  0  0
 19 20  2  0  0  0
 20 21  1  0  0  0
 21 22  2  0  0  0
 23 24  2  0  0  0
 23 25  1  0  0  0
 25 26  1  0  0  0
 27 28  2  0  0  0
M  END
>  <CHROM.0>
39.01713105,-71.69456973,-10.42568469,62.16051950,-30.66209841,-59.29478202
-36.33206801,-165.35167167

>  <CHROM.1>
-126.41342667,-178.13714939,-118.78419315,-172.06237491,-20.90752117,20.63295238
-13.64141871,-2.15519650,-0.45390752,-2.91317588

>  <Name>
F1172-0033

>  <RI>
2.68599e+07

>  <Rbt.Current_Directory>
/home/adria/Escritorio/rDock_CMTR_LC/2pxcA_model/inputs_sah

>  <Rbt.Executable>
rbdock ($Id: //depot/dev/client3/rdock/2013.1/src/exe/rbdock.cxx#4 $)

>  <Rbt.Library>
libRbt.so (2013.1, Build901 2013/11/27)

>  <Rbt.Parameter_File>
/home/adria/Escritorio/rDock_2013.1_src/data/scripts/dock.prm

>  <Rbt.Receptor>
sah_rdock.prm

>  <SCORE>
-50.7434

>  <SCORE.INTER>
-11.3024

>  <SCORE.INTER.CONST>
1

>  <SCORE.INTER.POLAR>
-1.15648

>  <SCORE.INTER.REPUL>
0

>  <SCORE.INTER.ROT>
4

>  <SCORE.INTER.VDW>
-16.7704

>  <SCORE.INTER.norm>
-0.418609

>  <SCORE.INTRA>
-36.3797

>  <SCORE.INTRA.DIHEDRAL>
-77.8291

>  <SCORE.INTRA.DIHEDRAL.0>
94.8737

>  <SCORE.INTRA.POLAR>
0

>  <SCORE.INTRA.POLAR.0>
0

>  <SCORE.INTRA.REPUL>
0

>  <SCORE.INTRA.REPUL.0>
0

>  <SCORE.INTRA.VDW>
2.5348

>  <SCORE.INTRA.VDW.0>
-4.02371

>  <SCORE.INTRA.norm>
-1.3474

>  <SCORE.RESTR>
0.0129351

>  <SCORE.RESTR.CAVITY>
0.0129351

>  <SCORE.RESTR.norm>
0.000479079

>  <SCORE.SYSTEM>
-3.07417

>  <SCORE.SYSTEM.CONST>
0

>  <SCORE.SYSTEM.DIHEDRAL>
10.9757

>  <SCORE.SYSTEM.POLAR>
-4.51393

>  <SCORE.SYSTEM.REPUL>
0.162461

>  <SCORE.SYSTEM.VDW>
5.97302

>  <SCORE.SYSTEM.norm>
-0.113858

>  <SCORE.heavy>
27

>  <SCORE.norm>
-1.87939

$$$$
F1172-0033
  rDOCK(R)          3D
libRbt.so/2013.1/901 2013/11/27
 29 32  0  0  0  0  0  0  0  0999 V2000
  -15.9009   16.7881  -17.0536 F   0  0  0  0  0  0
  -16.6580   17.6515  -16.3647 C   0  0  0  0  0  0
  -17.9374   17.2813  -15.9732 C   0  0  0  0  0  0
  -18.7329   18.1875  -15.2661 C   0  0  0  0  0  0
  -18.2550   19.4673  -14.9495 C   0  0  0  0  0  0
  -19.0359   20.4348  -14.3005 N   0  0  0  0  0  0
  -19.9698   20.2525  -13.3059 C   0  0  0  0  0  0
  -20.7449   21.2470  -12.8092 C   0  0  0  0  0  0
  -20.6042   22.6108  -13.4009 C   0  0  0  0  0  0
  -20.3045   22.7426  -14.5853 O   0  0  0  0  0  0
  -20.8308   23.8128  -12.5488 C   0  0  0  0  0  0
  -21.8140   24.7689  -12.8313 C   0  0  0  0  0  0
  -21.9787   25.8710  -11.9849 C   0  0  0  0  0  0
  -21.1699   26.0198  -10.8574 C   0  0  0  0  0  0
  -20.1989   25.0645  -10.5653 C   0  0  0  0  0  0
  -20.0340   23.9612  -11.4043 C   0  0  0  0  0  0
  -21.6029   21.0015  -11.6289 C   0  0  0  0  0  0
  -21.6167   19.7260  -11.0435 C   0  0  0  0  0  0
  -22.3661   19.4616   -9.8900 C   0  0  0  0  0  0
  -23.1250   20.4758   -9.3121 C   0  0  0  0  0  0
  -23.1424   21.7428   -9.8922 C   0  0  0  0  0  0
  -22.3895   22.0046  -11.0427 C   0  0  0  0  0  0
  -20.8056   18.6510  -11.6535 C   0  0  0  0  0  0
  -20.8006   17.5068  -11.2038 O   0  0  0  0  0  0
  -20.0505   19.0027  -12.7404 N   0  3  0  0  0  0
  -19.4599   18.2770  -13.1266 H   0  0  0  0  0  0
  -16.9537   19.8112  -15.3511 C   0  0  0  0  0  0
  -16.1564   18.9079  -16.0575 C   0  0  0  0  0  0
  -18.9330   21.3947  -14.6160 H   0  0  0  0  0  0
  1  2  1  0  0  0
  2  3  2  0  0  0
  2 28  1  0  0  0
  3  4  1  0  0  0
  4  5  2  0  0  0
  5  6  1  0  0  0
  5 27  1  0  0  0
  6  7  1  0  0  0
  6 29  1  0  0  0
  7  8  2  0  0  0
  7 25  1  0  0  0
  8  9  1  0  0  0
  8 17  1  0  0  0
  9 10  2  0  0  0
  9 11  1  0  0  0
 11 12  2  0  0  0
 11 16  1  0  0  0
 12 13  1  0  0  0
 13 14  2  0  0  0
 14 15  1  0  0  0
 15 16  2  0  0  0
 17 18  2  0  0  0
 17 22  1  0  0  0
 18 19  1  0  0  0
 18 23  1  0  0  0
 19 20  2  0  0  0
 20 21  1  0  0  0
 21 22  2  0  0  0
 23 24  2  0  0  0
 23 25  1  0  0  0
 25 26  1  0  0  0
 27 28  2  0  0  0
M  END
>  <CHROM.0>
-58.39708368,-69.87451768,72.97219412,64.62314846,-29.58487607,177.44760619
-52.14005395,-165.84176487

>  <CHROM.1>
36.77090556,-175.00436545,31.37863343,-120.34321244,-20.04620452,20.82192688
-12.96328283,-0.64043967,0.84931740,-0.07713401

>  <Name>
F1172-0033

>  <RI>
2.68599e+07

>  <Rbt.Current_Directory>
/home/adria/Escritorio/rDock_CMTR_LC/2pxcA_model/inputs_sah

>  <Rbt.Executable>
rbdock ($Id: //depot/dev/client3/rdock/2013.1/src/exe/rbdock.cxx#4 $)

>  <Rbt.Library>
libRbt.so (2013.1, Build901 2013/11/27)

>  <Rbt.Parameter_File>
/home/adria/Escritorio/rDock_2013.1_src/data/scripts/dock.prm

>  <Rbt.Receptor>
sah_rdock.prm

>  <SCORE>
-58.6305

>  <SCORE.INTER>
-16.6346

>  <SCORE.INTER.CONST>
1

>  <SCORE.INTER.POLAR>
-0.905818

>  <SCORE.INTER.REPUL>
0.00407167

>  <SCORE.INTER.ROT>
4

>  <SCORE.INTER.VDW>
-22.9752

>  <SCORE.INTER.norm>
-0.616098

>  <SCORE.INTRA>
-34.9497

>  <SCORE.INTRA.DIHEDRAL>
-77.1784

>  <SCORE.INTRA.DIHEDRAL.0>
94.8737

>  <SCORE.INTRA.POLAR>
0

>  <SCORE.INTRA.POLAR.0>
0

>  <SCORE.INTRA.REPUL>
0

>  <SCORE.INTRA.REPUL.0>
0

>  <SCORE.INTRA.VDW>
3.63946

>  <SCORE.INTRA.VDW.0>
-4.02371

>  <SCORE.INTRA.norm>
-1.29443

>  <SCORE.RESTR>
0

>  <SCORE.RESTR.CAVITY>
0

>  <SCORE.RESTR.norm>
0

>  <SCORE.SYSTEM>
-7.04613

>  <SCORE.SYSTEM.CONST>
0

>  <SCORE.SYSTEM.DIHEDRAL>
5.11969

>  <SCORE.SYSTEM.POLAR>
-3.5888

>  <SCORE.SYSTEM.REPUL>
0.0324832

>  <SCORE.SYSTEM.VDW>
2.43354

>  <SCORE.SYSTEM.norm>
-0.260968

>  <SCORE.heavy>
27

>  <SCORE.norm>
-2.1715

$$$$
F1172-0033
  rDOCK(R)          3D
libRbt.so/2013.1/901 2013/11/27
 29 32  0  0  0  0  0  0  0  0999 V2000
  -21.6466   26.6138  -10.4532 F   0  0  0  0  0  0
  -21.6808   25.4240  -11.0667 C   0  0  0  0  0  0
  -20.5268   24.6559  -11.1390 C   0  0  0  0  0  0
  -20.5591   23.4200  -11.7915 C   0  0  0  0  0  0
  -21.7429   22.9478  -12.3762 C   0  0  0  0  0  0
  -21.8118   21.7471  -13.0978 N   0  0  0  0  0  0
  -20.9609   21.2894  -14.0781 C   0  0  0  0  0  0
  -21.0637   20.0670  -14.6541 C   0  0  0  0  0  0
  -22.1872   19.1807  -14.2275 C   0  0  0  0  0  0
  -22.5250   19.1361  -13.0468 O   0  0  0  0  0  0
  -22.8993   18.3508  -15.2406 C   0  0  0  0  0  0
  -22.9245   18.6726  -16.6032 C   0  0  0  0  0  0
  -23.6063   17.8453  -17.5026 C   0  0  0  0  0  0
  -24.2582   16.6981  -17.0485 C   0  0  0  0  0  0
  -24.2251   16.3670  -15.6957 C   0  0  0  0  0  0
  -23.5426   17.1868  -14.7955 C   0  0  0  0  0  0
  -20.0111   19.5899  -15.5781 C   0  0  0  0  0  0
  -18.9181   20.4230  -15.8627 C   0  0  0  0  0  0
  -17.8677   19.9925  -16.6833 C   0  0  0  0  0  0
  -17.9059   18.7178  -17.2419 C   0  0  0  0  0  0
  -18.9940   17.8844  -16.9897 C   0  0  0  0  0  0
  -20.0402   18.3163  -16.1663 C   0  0  0  0  0  0
  -18.8747   21.7741  -15.2641 C   0  0  0  0  0  0
  -17.9588   22.5596  -15.5001 O   0  0  0  0  0  0
  -19.9050   22.0986  -14.4226 N   0  3  0  0  0  0
  -19.8480   23.0058  -13.9770 H   0  0  0  0  0  0
  -22.8971   23.7425  -12.2801 C   0  0  0  0  0  0
  -22.8680   24.9776  -11.6287 C   0  0  0  0  0  0
  -22.6038   21.1410  -12.9056 H   0  0  0  0  0  0
  1  2  1  0  0  0
  2  3  2  0  0  0
  2 28  1  0  0  0
  3  4  1  0  0  0
  4  5  2  0  0  0
  5  6  1  0  0  0
  5 27  1  0  0  0
  6  7  1  0  0  0
  6 29  1  0  0  0
  7  8  2  0  0  0
  7 25  1  0  0  0
  8  9  1  0  0  0
  8 17  1  0  0  0
  9 10  2  0  0  0
  9 11  1  0  0  0
 11 12  2  0  0  0
 11 16  1  0  0  0
 12 13  1  0  0  0
 13 14  2  0  0  0
 14 15  1  0  0  0
 15 16  2  0  0  0
 17 18  2  0  0  0
 17 22  1  0  0  0
 18 19  1  0  0  0
 18 23  1  0  0  0
 19 20  2  0  0  0
 20 21  1  0  0  0
 21 22  2  0  0  0
 23 24  2  0  0  0
 23 25  1  0  0  0
 25 26  1  0  0  0
 27 28  2  0  0  0
M  END
>  <CHROM.0>
38.08409156,65.10383649,-131.97386962,63.16825804,-32.15806970,-62.58533841
-156.86934514,-160.45035589

>  <CHROM.1>
-46.73056483,175.31521160,-39.10360194,-23.46556324,-21.19674597,20.83615563
-14.38602745,1.52127470,0.37340854,0.62379737

>  <Name>
F1172-0033

>  <RI>
2.68599e+07

>  <Rbt.Current_Directory>
/home/adria/Escritorio/rDock_CMTR_LC/2pxcA_model/inputs_sah

>  <Rbt.Executable>
rbdock ($Id: //depot/dev/client3/rdock/2013.1/src/exe/rbdock.cxx#4 $)

>  <Rbt.Library>
libRbt.so (2013.1, Build901 2013/11/27)

>  <Rbt.Parameter_File>
/home/adria/Escritorio/rDock_2013.1_src/data/scripts/dock.prm

>  <Rbt.Receptor>
sah_rdock.prm

>  <SCORE>
-50.8694

>  <SCORE.INTER>
-11.5484

>  <SCORE.INTER.CONST>
1

>  <SCORE.INTER.POLAR>
-0.43085

>  <SCORE.INTER.REPUL>
0

>  <SCORE.INTER.ROT>
4

>  <SCORE.INTER.VDW>
-19.4835

>  <SCORE.INTER.norm>
-0.42772

>  <SCORE.INTRA>
-36.7973

>  <SCORE.INTRA.DIHEDRAL>
-80.1949

>  <SCORE.INTRA.DIHEDRAL.0>
94.8737

>  <SCORE.INTRA.POLAR>
0

>  <SCORE.INTRA.POLAR.0>
0

>  <SCORE.INTRA.REPUL>
0

>  <SCORE.INTRA.REPUL.0>
0

>  <SCORE.INTRA.VDW>
3.3001

>  <SCORE.INTRA.VDW.0>
-4.02371

>  <SCORE.INTRA.norm>
-1.36286

>  <SCORE.RESTR>
0

>  <SCORE.RESTR.CAVITY>
0

>  <SCORE.RESTR.norm>
0

>  <SCORE.SYSTEM>
-2.52366

>  <SCORE.SYSTEM.CONST>
0

>  <SCORE.SYSTEM.DIHEDRAL>
10.4707

>  <SCORE.SYSTEM.POLAR>
-4.14733

>  <SCORE.SYSTEM.REPUL>
0.129137

>  <SCORE.SYSTEM.VDW>
5.69625

>  <SCORE.SYSTEM.norm>
-0.0934689

>  <SCORE.heavy>
27

>  <SCORE.norm>
-1.88405

$$$$
F1172-0033
  rDOCK(R)          3D
libRbt.so/2013.1/901 2013/11/27
 29 32  0  0  0  0  0  0  0  0999 V2000
  -18.7112   16.7183  -14.7217 F   0  0  0  0  0  0
  -19.7411   17.5359  -14.4683 C   0  0  0  0  0  0
  -20.8856   17.4603  -15.2501 C   0  0  0  0  0  0
  -21.9552   18.3232  -14.9945 C   0  0  0  0  0  0
  -21.8851   19.2662  -13.9590 C   0  0  0  0  0  0
  -22.9026   20.1973  -13.7041 N   0  0  0  0  0  0
  -23.5439   20.4578  -12.5144 C   0  0  0  0  0  0
  -24.5077   21.3993  -12.3687 C   0  0  0  0  0  0
  -24.9241   22.1724  -13.5766 C   0  0  0  0  0  0
  -24.8026   23.3950  -13.5998 O   0  0  0  0  0  0
  -25.4863   21.4545  -14.7558 C   0  0  0  0  0  0
  -25.8529   22.1083  -15.9385 C   0  0  0  0  0  0
  -26.3680   21.3723  -17.0113 C   0  0  0  0  0  0
  -26.5145   19.9883  -16.9098 C   0  0  0  0  0  0
  -26.1392   19.3317  -15.7398 C   0  0  0  0  0  0
  -25.6207   20.0612  -14.6686 C   0  0  0  0  0  0
  -25.0266   21.7297  -11.0230 C   0  0  0  0  0  0
  -24.5223   21.0461   -9.9058 C   0  0  0  0  0  0
  -24.9386   21.3654   -8.6070 C   0  0  0  0  0  0
  -25.8801   22.3722   -8.4116 C   0  0  0  0  0  0
  -26.4097   23.0465   -9.5102 C   0  0  0  0  0  0
  -25.9889   22.7276  -10.8064 C   0  0  0  0  0  0
  -23.5177   19.9815  -10.1131 C   0  0  0  0  0  0
  -23.0618   19.3279   -9.1769 O   0  0  0  0  0  0
  -23.1137   19.7712  -11.4044 N   0  3  0  0  0  0
  -22.3911   19.0750  -11.5379 H   0  0  0  0  0  0
  -20.7179   19.3142  -13.1790 C   0  0  0  0  0  0
  -19.6477   18.4533  -13.4318 C   0  0  0  0  0  0
  -23.2426   20.7340  -14.4965 H   0  0  0  0  0  0
  1  2  1  0  0  0
  2  3  2  0  0  0
  2 28  1  0  0  0
  3  4  1  0  0  0
  4  5  2  0  0  0
  5  6  1  0  0  0
  5 27  1  0  0  0
  6  7  1  0  0  0
  6 29  1  0  0  0
  7  8  2  0  0  0
  7 25  1  0  0  0
  8  9  1  0  0  0
  8 17  1  0  0  0
  9 10  2  0  0  0
  9 11  1  0  0  0
 11 12  2  0  0  0
 11 16  1  0  0  0
 12 13  1  0  0  0
 13 14  2  0  0  0
 14 15  1  0  0  0
 15 16  2  0  0  0
 17 18  2  0  0  0
 17 22  1  0  0  0
 18 19  1  0  0  0
 18 23  1  0  0  0
 19 20  2  0  0  0
 20 21  1  0  0  0
 21 22  2  0  0  0
 23 24  2  0  0  0
 23 25  1  0  0  0
 25 26  1  0  0  0
 27 28  2  0  0  0
M  END
>  <CHROM.0>
-62.51003542,-170.91477501,-46.23957216,-61.62500426,-30.46538186,-59.01742092
-156.98569047,-159.63404390

>  <CHROM.1>
127.93303083,178.96881916,-120.06995813,-177.66961592,-23.71272598,20.33008470
-12.96628913,-0.64453246,-0.59228790,1.38666168

>  <Name>
F1172-0033

>  <RI>
2.68599e+07

>  <Rbt.Current_Directory>
/home/adria/Escritorio/rDock_CMTR_LC/2pxcA_model/inputs_sah

>  <Rbt.Executable>
rbdock ($Id: //depot/dev/client3/rdock/2013.1/src/exe/rbdock.cxx#4 $)

>  <Rbt.Library>
libRbt.so (2013.1, Build901 2013/11/27)

>  <Rbt.Parameter_File>
/home/adria/Escritorio/rDock_2013.1_src/data/scripts/dock.prm

>  <Rbt.Receptor>
sah_rdock.prm

>  <SCORE>
-49.9117

>  <SCORE.INTER>
-7.42709

>  <SCORE.INTER.CONST>
1

>  <SCORE.INTER.POLAR>
-1.63174

>  <SCORE.INTER.REPUL>
0

>  <SCORE.INTER.ROT>
4

>  <SCORE.INTER.VDW>
-11.2792

>  <SCORE.INTER.norm>
-0.275078

>  <SCORE.INTRA>
-36.1838

>  <SCORE.INTRA.DIHEDRAL>
-78.7096

>  <SCORE.INTRA.DIHEDRAL.0>
94.8737

>  <SCORE.INTRA.POLAR>
0

>  <SCORE.INTRA.POLAR.0>
0

>  <SCORE.INTRA.REPUL>
0

>  <SCORE.INTRA.REPUL.0>
0

>  <SCORE.INTRA.VDW>
3.17104

>  <SCORE.INTRA.VDW.0>
-4.02371

>  <SCORE.INTRA.norm>
-1.34014

>  <SCORE.RESTR>
0.0128146

>  <SCORE.RESTR.CAVITY>
0.0128146

>  <SCORE.RESTR.norm>
0.000474615

>  <SCORE.SYSTEM>
-6.31366

>  <SCORE.SYSTEM.CONST>
0

>  <SCORE.SYSTEM.DIHEDRAL>
6.14355

>  <SCORE.SYSTEM.POLAR>
-3.75331

>  <SCORE.SYSTEM.VDW>
3.37582

>  <SCORE.SYSTEM.norm>
-0.233839

>  <SCORE.heavy>
27

>  <SCORE.norm>
-1.84858

$$$$
F1172-0033
  rDOCK(R)          3D
libRbt.so/2013.1/901 2013/11/27
 29 32  0  0  0  0  0  0  0  0999 V2000
  -21.0137   23.9573  -12.0934 F   0  0  0  0  0  0
  -20.5943   22.7837  -12.5834 C   0  0  0  0  0  0
  -20.2886   21.7466  -11.7129 C   0  0  0  0  0  0
  -19.8375   20.5260  -12.2237 C   0  0  0  0  0  0
  -19.6877   20.3374  -13.6051 C   0  0  0  0  0  0
  -19.1773   19.1563  -14.1634 N   0  0  0  0  0  0
  -18.2040   19.0177  -15.1268 C   0  0  0  0  0  0
  -17.8244   17.8257  -15.6478 C   0  0  0  0  0  0
  -18.5285   16.5959  -15.1768 C   0  0  0  0  0  0
  -19.0034   16.5512  -14.0444 O   0  0  0  0  0  0
  -18.6547   15.4223  -16.0873 C   0  0  0  0  0  0
  -18.8756   15.5502  -17.4641 C   0  0  0  0  0  0
  -18.9769   14.4060  -18.2633 C   0  0  0  0  0  0
  -18.8547   13.1373  -17.6951 C   0  0  0  0  0  0
  -18.6222   13.0054  -16.3279 C   0  0  0  0  0  0
  -18.5159   14.1440  -15.5274 C   0  0  0  0  0  0
  -16.6581   17.7488  -16.5551 C   0  0  0  0  0  0
  -15.9635   18.9238  -16.8817 C   0  0  0  0  0  0
  -14.8184   18.8934  -17.6877 C   0  0  0  0  0  0
  -14.3591   17.6786  -18.1893 C   0  0  0  0  0  0
  -15.0487   16.5038  -17.8951 C   0  0  0  0  0  0
  -16.1905   16.5372  -17.0864 C   0  0  0  0  0  0
  -16.4477   20.2129  -16.3436 C   0  0  0  0  0  0
  -15.8991   21.2782  -16.6186 O   0  0  0  0  0  0
  -17.5339   20.1540  -15.5120 N   0  3  0  0  0  0
  -17.8338   21.0320  -15.1072 H   0  0  0  0  0  0
  -20.0127   21.4016  -14.4624 C   0  0  0  0  0  0
  -20.4638   22.6221  -13.9551 C   0  0  0  0  0  0
  -19.5914   18.2838  -13.8491 H   0  0  0  0  0  0
  1  2  1  0  0  0
  2  3  2  0  0  0
  2 28  1  0  0  0
  3  4  1  0  0  0
  4  5  2  0  0  0
  5  6  1  0  0  0
  5 27  1  0  0  0
  6  7  1  0  0  0
  6 29  1  0  0  0
  7  8  2  0  0  0
  7 25  1  0  0  0
  8  9  1  0  0  0
  8 17  1  0  0  0
  9 10  2  0  0  0
  9 11  1  0  0  0
 11 12  2  0  0  0
 11 16  1  0  0  0
 12 13  1  0  0  0
 13 14  2  0  0  0
 14 15  1  0  0  0
 15 16  2  0  0  0
 17 18  2  0  0  0
 17 22  1  0  0  0
 18 19  1  0  0  0
 18 23  1  0  0  0
 19 20  2  0  0  0
 20 21  1  0  0  0
 21 22  2  0  0  0
 23 24  2  0  0  0
 23 25  1  0  0  0
 25 26  1  0  0  0
 27 28  2  0  0  0
M  END
>  <CHROM.0>
-61.87692592,-169.96392772,-10.59087375,149.14290056,168.33451839,60.20084614
-38.80388086,-161.26225467

>  <CHROM.1>
-132.07433354,-176.70883161,-28.90968866,-37.43142506,-18.19283584,18.48128846
-15.45076839,1.96708312,0.62995325,0.29930474

>  <Name>
F1172-0033

>  <RI>
2.68599e+07

>  <Rbt.Current_Directory>
/home/adria/Escritorio/rDock_CMTR_LC/2pxcA_model/inputs_sah

>  <Rbt.Executable>
rbdock ($Id: //depot/dev/client3/rdock/2013.1/src/exe/rbdock.cxx#4 $)

>  <Rbt.Library>
libRbt.so (2013.1, Build901 2013/11/27)

>  <Rbt.Parameter_File>
/home/adria/Escritorio/rDock_2013.1_src/data/scripts/dock.prm

>  <Rbt.Receptor>
sah_rdock.prm

>  <SCORE>
-50.4448

>  <SCORE.INTER>
-16.9191

>  <SCORE.INTER.CONST>
1

>  <SCORE.INTER.POLAR>
-0.736834

>  <SCORE.INTER.REPUL>
0

>  <SCORE.INTER.ROT>
4

>  <SCORE.INTER.VDW>
-23.8139

>  <SCORE.INTER.norm>
-0.626635

>  <SCORE.INTRA>
-35.5771

>  <SCORE.INTRA.DIHEDRAL>
-79.1207

>  <SCORE.INTRA.DIHEDRAL.0>
94.8737

>  <SCORE.INTRA.POLAR>
0

>  <SCORE.INTRA.POLAR.0>
0

>  <SCORE.INTRA.REPUL>
0

>  <SCORE.INTRA.REPUL.0>
0

>  <SCORE.INTRA.VDW>
3.98331

>  <SCORE.INTRA.VDW.0>
-4.02371

>  <SCORE.INTRA.norm>
-1.31767

>  <SCORE.RESTR>
0

>  <SCORE.RESTR.CAVITY>
0

>  <SCORE.RESTR.norm>
0

>  <SCORE.SYSTEM>
2.05138

>  <SCORE.SYSTEM.CONST>
0

>  <SCORE.SYSTEM.DIHEDRAL>
9.7408

>  <SCORE.SYSTEM.POLAR>
-4.13772

>  <SCORE.SYSTEM.VDW>
11.2492

>  <SCORE.SYSTEM.norm>
0.0759772

>  <SCORE.heavy>
27

>  <SCORE.norm>
-1.86833

$$$$
F1172-0033
  rDOCK(R)          3D
libRbt.so/2013.1/901 2013/11/27
 29 32  0  0  0  0  0  0  0  0999 V2000
  -21.7747   27.1919   -9.5131 F   0  0  0  0  0  0
  -21.3793   26.1036  -10.1858 C   0  0  0  0  0  0
  -22.0896   25.6937  -11.3059 C   0  0  0  0  0  0
  -21.6852   24.5497  -12.0000 C   0  0  0  0  0  0
  -20.5718   23.8095  -11.5770 C   0  0  0  0  0  0
  -20.1651   22.6198  -12.1986 N   0  0  0  0  0  0
  -20.9462   21.5758  -12.6395 C   0  0  0  0  0  0
  -20.4606   20.5025  -13.3094 C   0  0  0  0  0  0
  -18.9886   20.4304  -13.5500 C   0  0  0  0  0  0
  -18.2012   20.6373  -12.6295 O   0  0  0  0  0  0
  -18.4776   20.1044  -14.9118 C   0  0  0  0  0  0
  -17.2612   19.4455  -15.1285 C   0  0  0  0  0  0
  -16.8439   19.1632  -16.4339 C   0  0  0  0  0  0
  -17.6366   19.5316  -17.5217 C   0  0  0  0  0  0
  -18.8536   20.1760  -17.3106 C   0  0  0  0  0  0
  -19.2761   20.4557  -16.0100 C   0  0  0  0  0  0
  -21.3885   19.5083  -13.8924 C   0  0  0  0  0  0
  -22.7716   19.6811  -13.7286 C   0  0  0  0  0  0
  -23.6904   18.7999  -14.3128 C   0  0  0  0  0  0
  -23.2312   17.7210  -15.0633 C   0  0  0  0  0  0
  -21.8609   17.5195  -15.2180 C   0  0  0  0  0  0
  -20.9455   18.4039  -14.6361 C   0  0  0  0  0  0
  -23.2591   20.8305  -12.9370 C   0  0  0  0  0  0
  -24.4572   21.0174  -12.7338 O   0  0  0  0  0  0
  -22.3034   21.6829  -12.4523 N   0  3  0  0  0  0
  -22.6424   22.4947  -11.9516 H   0  0  0  0  0  0
  -19.8675   24.2527  -10.4454 C   0  0  0  0  0  0
  -20.2689   25.3954   -9.7500 C   0  0  0  0  0  0
  -19.1657   22.4825  -12.3172 H   0  0  0  0  0  0
  1  2  1  0  0  0
  2  3  2  0  0  0
  2 28  1  0  0  0
  3  4  1  0  0  0
  4  5  2  0  0  0
  5  6  1  0  0  0
  5 27  1  0  0  0
  6  7  1  0  0  0
  6 29  1  0  0  0
  7  8  2  0  0  0
  7 25  1  0  0  0
  8  9  1  0  0  0
  8 17  1  0  0  0
  9 10  2  0  0  0
  9 11  1  0  0  0
 11 12  2  0  0  0
 11 16  1  0  0  0
 12 13  1  0  0  0
 13 14  2  0  0  0
 14 15  1  0  0  0
 15 16  2  0  0  0
 17 18  2  0  0  0
 17 22  1  0  0  0
 18 19  1  0  0  0
 18 23  1  0  0  0
 19 20  2  0  0  0
 20 21  1  0  0  0
 21 22  2  0  0  0
 23 24  2  0  0  0
 23 25  1  0  0  0
 25 26  1  0  0  0
 27 28  2  0  0  0
M  END
>  <CHROM.0>
-61.48496092,-71.09111865,-165.11474918,66.50895193,168.36481492,-177.50207671
-157.05270861,-165.79354555

>  <CHROM.1>
-42.52943204,175.52977954,47.93424682,-150.50810476,-20.71813141,21.46131262
-13.30632602,-1.78621358,-0.27577993,-2.52161340

>  <Name>
F1172-0033

>  <RI>
2.68599e+07

>  <Rbt.Current_Directory>
/home/adria/Escritorio/rDock_CMTR_LC/2pxcA_model/inputs_sah

>  <Rbt.Executable>
rbdock ($Id: //depot/dev/client3/rdock/2013.1/src/exe/rbdock.cxx#4 $)

>  <Rbt.Library>
libRbt.so (2013.1, Build901 2013/11/27)

>  <Rbt.Parameter_File>
/home/adria/Escritorio/rDock_2013.1_src/data/scripts/dock.prm

>  <Rbt.Receptor>
sah_rdock.prm

>  <SCORE>
-55.071

>  <SCORE.INTER>
-15.9151

>  <SCORE.INTER.CONST>
1

>  <SCORE.INTER.POLAR>
-0.77895

>  <SCORE.INTER.REPUL>
0

>  <SCORE.INTER.ROT>
4

>  <SCORE.INTER.VDW>
-22.6667

>  <SCORE.INTER.norm>
-0.589448

>  <SCORE.INTRA>
-36.4805

>  <SCORE.INTRA.DIHEDRAL>
-79.7976

>  <SCORE.INTRA.DIHEDRAL.0>
94.8737

>  <SCORE.INTRA.POLAR>
0

>  <SCORE.INTRA.POLAR.0>
0

>  <SCORE.INTRA.REPUL>
0

>  <SCORE.INTRA.REPUL.0>
0

>  <SCORE.INTRA.VDW>
3.41834

>  <SCORE.INTRA.VDW.0>
-4.02371

>  <SCORE.INTRA.norm>
-1.35113

>  <SCORE.RESTR>
0

>  <SCORE.RESTR.CAVITY>
0

>  <SCORE.RESTR.norm>
0

>  <SCORE.SYSTEM>
-2.67545

>  <SCORE.SYSTEM.CONST>
0

>  <SCORE.SYSTEM.DIHEDRAL>
3.43028

>  <SCORE.SYSTEM.POLAR>
-3.90041

>  <SCORE.SYSTEM.REPUL>
0.03495

>  <SCORE.SYSTEM.VDW>
8.69607

>  <SCORE.SYSTEM.norm>
-0.0990907

>  <SCORE.heavy>
27

>  <SCORE.norm>
-2.03967

$$$$
F1172-0033
  rDOCK(R)          3D
libRbt.so/2013.1/901 2013/11/27
 29 32  0  0  0  0  0  0  0  0999 V2000
  -21.8863   26.9093   -9.5942 F   0  0  0  0  0  0
  -21.4737   25.9334  -10.4132 C   0  0  0  0  0  0
  -20.2304   25.3494  -10.2128 C   0  0  0  0  0  0
  -19.7938   24.3403  -11.0761 C   0  0  0  0  0  0
  -20.5958   23.9124  -12.1438 C   0  0  0  0  0  0
  -20.1771   22.9514  -13.0757 N   0  0  0  0  0  0
  -20.8262   21.8032  -13.4691 C   0  0  0  0  0  0
  -20.3829   20.9883  -14.4571 C   0  0  0  0  0  0
  -19.0970   21.3362  -15.1319 C   0  0  0  0  0  0
  -18.8105   22.5115  -15.3476 O   0  0  0  0  0  0
  -18.1604   20.2512  -15.5415 C   0  0  0  0  0  0
  -17.1853   20.4239  -16.5314 C   0  0  0  0  0  0
  -16.3326   19.3649  -16.8626 C   0  0  0  0  0  0
  -16.4467   18.1379  -16.2078 C   0  0  0  0  0  0
  -17.4069   17.9653  -15.2133 C   0  0  0  0  0  0
  -18.2567   19.0202  -14.8765 C   0  0  0  0  0  0
  -21.2250   19.8671  -14.9296 C   0  0  0  0  0  0
  -22.4760   19.6487  -14.3321 C   0  0  0  0  0  0
  -23.3336   18.6382  -14.7853 C   0  0  0  0  0  0
  -22.9405   17.8213  -15.8419 C   0  0  0  0  0  0
  -21.6923   18.0077  -16.4329 C   0  0  0  0  0  0
  -20.8392   19.0207  -15.9801 C   0  0  0  0  0  0
  -22.8959   20.5205  -13.2145 C   0  0  0  0  0  0
  -23.9666   20.3591  -12.6322 O   0  0  0  0  0  0
  -22.0319   21.5258  -12.8710 N   0  3  0  0  0  0
  -22.3432   22.1502  -12.1376 H   0  0  0  0  0  0
  -21.8525   24.5154  -12.3171 C   0  0  0  0  0  0
  -22.2915   25.5237  -11.4562 C   0  0  0  0  0  0
  -19.2650   23.0907  -13.5002 H   0  0  0  0  0  0
  1  2  1  0  0  0
  2  3  2  0  0  0
  2 28  1  0  0  0
  3  4  1  0  0  0
  4  5  2  0  0  0
  5  6  1  0  0  0
  5 27  1  0  0  0
  6  7  1  0  0  0
  6 29  1  0  0  0
  7  8  2  0  0  0
  7 25  1  0  0  0
  8  9  1  0  0  0
  8 17  1  0  0  0
  9 10  2  0  0  0
  9 11  1  0  0  0
 11 12  2  0  0  0
 11 16  1  0  0  0
 12 13  1  0  0  0
 13 14  2  0  0  0
 14 15  1  0  0  0
 15 16  2  0  0  0
 17 18  2  0  0  0
 17 22  1  0  0  0
 18 19  1  0  0  0
 18 23  1  0  0  0
 19 20  2  0  0  0
 20 21  1  0  0  0
 21 22  2  0  0  0
 23 24  2  0  0  0
 23 25  1  0  0  0
 25 26  1  0  0  0
 27 28  2  0  0  0
M  END
>  <CHROM.0>
-57.90833746,-73.57542390,-47.16540720,-63.37241864,167.69939464,-63.55098737
-36.65174027,-160.67402505

>  <CHROM.1>
127.90475193,174.70622521,-37.14437449,158.53438574,-20.50312254,21.45744090
-13.80978387,-1.87095632,-0.25600415,-2.55175391

>  <Name>
F1172-0033

>  <RI>
2.68599e+07

>  <Rbt.Current_Directory>
/home/adria/Escritorio/rDock_CMTR_LC/2pxcA_model/inputs_sah

>  <Rbt.Executable>
rbdock ($Id: //depot/dev/client3/rdock/2013.1/src/exe/rbdock.cxx#4 $)

>  <Rbt.Library>
libRbt.so (2013.1, Build901 2013/11/27)

>  <Rbt.Parameter_File>
/home/adria/Escritorio/rDock_2013.1_src/data/scripts/dock.prm

>  <Rbt.Receptor>
sah_rdock.prm

>  <SCORE>
-53.2122

>  <SCORE.INTER>
-14.6136

>  <SCORE.INTER.CONST>
1

>  <SCORE.INTER.POLAR>
-0.0215354

>  <SCORE.INTER.REPUL>
0

>  <SCORE.INTER.ROT>
4

>  <SCORE.INTER.VDW>
-23.9404

>  <SCORE.INTER.norm>
-0.541243

>  <SCORE.INTRA>
-36.1186

>  <SCORE.INTRA.DIHEDRAL>
-79.5783

>  <SCORE.INTRA.DIHEDRAL.0>
94.8737

>  <SCORE.INTRA.POLAR>
0

>  <SCORE.INTRA.POLAR.0>
0

>  <SCORE.INTRA.REPUL>
0

>  <SCORE.INTRA.REPUL.0>
0

>  <SCORE.INTRA.VDW>
3.67054

>  <SCORE.INTRA.VDW.0>
-4.02371

>  <SCORE.INTRA.norm>
-1.33773

>  <SCORE.RESTR>
0

>  <SCORE.RESTR.CAVITY>
0

>  <SCORE.RESTR.norm>
0

>  <SCORE.SYSTEM>
-2.48002

>  <SCORE.SYSTEM.CONST>
0

>  <SCORE.SYSTEM.DIHEDRAL>
3.80442

>  <SCORE.SYSTEM.POLAR>
-3.96207

>  <SCORE.SYSTEM.REPUL>
0.0395469

>  <SCORE.SYSTEM.VDW>
8.89107

>  <SCORE.SYSTEM.norm>
-0.0918526

>  <SCORE.heavy>
27

>  <SCORE.norm>
-1.97082

$$$$
F1172-0033
  rDOCK(R)          3D
libRbt.so/2013.1/901 2013/11/27
 29 32  0  0  0  0  0  0  0  0999 V2000
  -21.8084   26.8205   -8.5000 F   0  0  0  0  0  0
  -21.4267   25.8683   -9.3607 C   0  0  0  0  0  0
  -20.1154   25.8400   -9.8153 C   0  0  0  0  0  0
  -19.7204   24.8544  -10.7245 C   0  0  0  0  0  0
  -20.6337   23.8951  -11.1850 C   0  0  0  0  0  0
  -20.3050   22.9274  -12.1455 N   0  0  0  0  0  0
  -20.6240   21.5884  -12.1532 C   0  0  0  0  0  0
  -20.4314   20.7745  -13.2195 C   0  0  0  0  0  0
  -19.8025   21.3551  -14.4432 C   0  0  0  0  0  0
  -20.0011   22.5305  -14.7416 O   0  0  0  0  0  0
  -18.9307   20.5031  -15.3010 C   0  0  0  0  0  0
  -18.9223   20.5908  -16.6985 C   0  0  0  0  0  0
  -18.0730   19.7656  -17.4440 C   0  0  0  0  0  0
  -17.2306   18.8578  -16.8008 C   0  0  0  0  0  0
  -17.2262   18.7758  -15.4102 C   0  0  0  0  0  0
  -18.0684   19.6002  -14.6622 C   0  0  0  0  0  0
  -20.9542   19.3904  -13.2019 C   0  0  0  0  0  0
  -21.6341   18.9276  -12.0647 C   0  0  0  0  0  0
  -22.1987   17.6464  -12.0242 C   0  0  0  0  0  0
  -22.0780   16.8035  -13.1257 C   0  0  0  0  0  0
  -21.3865   17.2366  -14.2554 C   0  0  0  0  0  0
  -20.8266   18.5187  -14.2941 C   0  0  0  0  0  0
  -21.7678   19.8252  -10.8976 C   0  0  0  0  0  0
  -22.3260   19.4659   -9.8629 O   0  0  0  0  0  0
  -21.2461   21.0836  -11.0367 N   0  3  0  0  0  0
  -21.3812   21.7114  -10.2542 H   0  0  0  0  0  0
  -21.9515   23.9432  -10.7014 C   0  0  0  0  0  0
  -22.3491   24.9265   -9.7928 C   0  0  0  0  0  0
  -19.7311   23.2320  -12.9262 H   0  0  0  0  0  0
  1  2  1  0  0  0
  2  3  2  0  0  0
  2 28  1  0  0  0
  3  4  1  0  0  0
  4  5  2  0  0  0
  5  6  1  0  0  0
  5 27  1  0  0  0
  6  7  1  0  0  0
  6 29  1  0  0  0
  7  8  2  0  0  0
  7 25  1  0  0  0
  8  9  1  0  0  0
  8 17  1  0  0  0
  9 10  2  0  0  0
  9 11  1  0  0  0
 11 12  2  0  0  0
 11 16  1  0  0  0
 12 13  1  0  0  0
 13 14  2  0  0  0
 14 15  1  0  0  0
 15 16  2  0  0  0
 17 18  2  0  0  0
 17 22  1  0  0  0
 18 19  1  0  0  0
 18 23  1  0  0  0
 19 20  2  0  0  0
 20 21  1  0  0  0
 21 22  2  0  0  0
 23 24  2  0  0  0
 23 25  1  0  0  0
 25 26  1  0  0  0
 27 28  2  0  0  0
M  END
>  <CHROM.0>
-62.48978172,-73.15552312,73.33053222,64.32560535,-31.88273937,-177.57850408
84.15715478,-160.31088194

>  <CHROM.1>
136.91556662,169.84218952,-32.46974514,142.11365919,-20.47680155,21.29518333
-12.65286928,-1.95176648,-0.88517466,-2.72189902

>  <Name>
F1172-0033

>  <RI>
2.68599e+07

>  <Rbt.Current_Directory>
/home/adria/Escritorio/rDock_CMTR_LC/2pxcA_model/inputs_sah

>  <Rbt.Executable>
rbdock ($Id: //depot/dev/client3/rdock/2013.1/src/exe/rbdock.cxx#4 $)

>  <Rbt.Library>
libRbt.so (2013.1, Build901 2013/11/27)

>  <Rbt.Parameter_File>
/home/adria/Escritorio/rDock_2013.1_src/data/scripts/dock.prm

>  <Rbt.Receptor>
sah_rdock.prm

>  <SCORE>
-60.6744

>  <SCORE.INTER>
-17.3938

>  <SCORE.INTER.CONST>
1

>  <SCORE.INTER.POLAR>
-0.531962

>  <SCORE.INTER.REPUL>
0

>  <SCORE.INTER.ROT>
4

>  <SCORE.INTER.VDW>
-24.9851

>  <SCORE.INTER.norm>
-0.644214

>  <SCORE.INTRA>
-35.5535

>  <SCORE.INTRA.DIHEDRAL>
-77.3914

>  <SCORE.INTRA.DIHEDRAL.0>
94.8737

>  <SCORE.INTRA.POLAR>
0

>  <SCORE.INTRA.POLAR.0>
0

>  <SCORE.INTRA.REPUL>
0

>  <SCORE.INTRA.REPUL.0>
0

>  <SCORE.INTRA.VDW>
3.14222

>  <SCORE.INTRA.VDW.0>
-4.02371

>  <SCORE.INTRA.norm>
-1.3168

>  <SCORE.RESTR>
0

>  <SCORE.RESTR.CAVITY>
0

>  <SCORE.RESTR.norm>
0

>  <SCORE.SYSTEM>
-7.72718

>  <SCORE.SYSTEM.CONST>
0

>  <SCORE.SYSTEM.DIHEDRAL>
6.42739

>  <SCORE.SYSTEM.POLAR>
-4.07077

>  <SCORE.SYSTEM.REPUL>
0.0388121

>  <SCORE.SYSTEM.VDW>
2.70568

>  <SCORE.SYSTEM.norm>
-0.286192

>  <SCORE.heavy>
27

>  <SCORE.norm>
-2.2472

$$$$
F1172-0033
  rDOCK(R)          3D
libRbt.so/2013.1/901 2013/11/27
 29 32  0  0  0  0  0  0  0  0999 V2000
  -22.9154   26.8745  -12.0863 F   0  0  0  0  0  0
  -22.5441   25.5902  -12.1642 C   0  0  0  0  0  0
  -21.3683   25.1776  -11.5524 C   0  0  0  0  0  0
  -20.9737   23.8398  -11.6453 C   0  0  0  0  0  0
  -21.7501   22.9098  -12.3514 C   0  0  0  0  0  0
  -21.3654   21.5728  -12.5295 N   0  0  0  0  0  0
  -20.4691   21.0552  -13.4368 C   0  0  0  0  0  0
  -20.2426   19.7290  -13.5990 C   0  0  0  0  0  0
  -21.0382   18.7732  -12.7722 C   0  0  0  0  0  0
  -20.4705   17.9045  -12.1141 O   0  0  0  0  0  0
  -22.5249   18.8783  -12.7469 C   0  0  0  0  0  0
  -23.2473   19.6463  -13.6683 C   0  0  0  0  0  0
  -24.6437   19.6954  -13.5924 C   0  0  0  0  0  0
  -25.3207   18.9789  -12.6046 C   0  0  0  0  0  0
  -24.6071   18.2033  -11.6935 C   0  0  0  0  0  0
  -23.2143   18.1477  -11.7682 C   0  0  0  0  0  0
  -19.1450   19.2642  -14.4758 C   0  0  0  0  0  0
  -18.3560   20.2102  -15.1483 C   0  0  0  0  0  0
  -17.2689   19.8211  -15.9412 C   0  0  0  0  0  0
  -16.9644   18.4697  -16.0803 C   0  0  0  0  0  0
  -17.7504   17.5141  -15.4391 C   0  0  0  0  0  0
  -18.8338   17.9065  -14.6445 C   0  0  0  0  0  0
  -18.6755   21.6455  -14.9951 C   0  0  0  0  0  0
  -18.0395   22.5184  -15.5825 O   0  0  0  0  0  0
  -19.7117   21.9503  -14.1534 N   0  3  0  0  0  0
  -19.8974   22.9355  -14.0133 H   0  0  0  0  0  0
  -22.9390   23.3540  -12.9531 C   0  0  0  0  0  0
  -23.3361   24.6898  -12.8618 C   0  0  0  0  0  0
  -21.8219   20.8817  -11.9415 H   0  0  0  0  0  0
  1  2  1  0  0  0
  2  3  2  0  0  0
  2 28  1  0  0  0
  3  4  1  0  0  0
  4  5  2  0  0  0
  5  6  1  0  0  0
  5 27  1  0  0  0
  6  7  1  0  0  0
  6 29  1  0  0  0
  7  8  2  0  0  0
  7 25  1  0  0  0
  8  9  1  0  0  0
  8 17  1  0  0  0
  9 10  2  0  0  0
  9 11  1  0  0  0
 11 12  2  0  0  0
 11 16  1  0  0  0
 12 13  1  0  0  0
 13 14  2  0  0  0
 14 15  1  0  0  0
 15 16  2  0  0  0
 17 18  2  0  0  0
 17 22  1  0  0  0
 18 19  1  0  0  0
 18 23  1  0  0  0
 19 20  2  0  0  0
 20 21  1  0  0  0
 21 22  2  0  0  0
 23 24  2  0  0  0
 23 25  1  0  0  0
 25 26  1  0  0  0
 27 28  2  0  0  0
M  END
>  <CHROM.0>
171.11096147,66.49329266,-131.01530447,62.75967979,-31.40296869,-179.83551827
-37.22247591,-162.14407765

>  <CHROM.1>
-79.74567499,-174.63869561,-127.87255448,13.68451833,-21.03755733,20.99950392
-13.40884171,-2.22576100,-0.46298020,-3.04911473

>  <Name>
F1172-0033

>  <RI>
2.68599e+07

>  <Rbt.Current_Directory>
/home/adria/Escritorio/rDock_CMTR_LC/2pxcA_model/inputs_sah

>  <Rbt.Executable>
rbdock ($Id: //depot/dev/client3/rdock/2013.1/src/exe/rbdock.cxx#4 $)

>  <Rbt.Library>
libRbt.so (2013.1, Build901 2013/11/27)

>  <Rbt.Parameter_File>
/home/adria/Escritorio/rDock_2013.1_src/data/scripts/dock.prm

>  <Rbt.Receptor>
sah_rdock.prm

>  <SCORE>
-53.3419

>  <SCORE.INTER>
-12.4412

>  <SCORE.INTER.CONST>
1

>  <SCORE.INTER.POLAR>
-0.88183

>  <SCORE.INTER.REPUL>
0

>  <SCORE.INTER.ROT>
4

>  <SCORE.INTER.VDW>
-18.8429

>  <SCORE.INTER.norm>
-0.460784

>  <SCORE.INTRA>
-34.7797

>  <SCORE.INTRA.DIHEDRAL>
-74.0226

>  <SCORE.INTRA.DIHEDRAL.0>
94.8737

>  <SCORE.INTRA.POLAR>
0

>  <SCORE.INTRA.POLAR.0>
0

>  <SCORE.INTRA.REPUL>
0

>  <SCORE.INTRA.REPUL.0>
0

>  <SCORE.INTRA.VDW>
2.23159

>  <SCORE.INTRA.VDW.0>
-4.02371

>  <SCORE.INTRA.norm>
-1.28814

>  <SCORE.RESTR>
0

>  <SCORE.RESTR.CAVITY>
0

>  <SCORE.RESTR.norm>
0

>  <SCORE.SYSTEM>
-6.12103

>  <SCORE.SYSTEM.CONST>
0

>  <SCORE.SYSTEM.DIHEDRAL>
8.85799

>  <SCORE.SYSTEM.POLAR>
-4.13645

>  <SCORE.SYSTEM.VDW>
3.51391

>  <SCORE.SYSTEM.norm>
-0.226705

>  <SCORE.heavy>
27

>  <SCORE.norm>
-1.97563

$$$$
F1172-0033
  rDOCK(R)          3D
libRbt.so/2013.1/901 2013/11/27
 29 32  0  0  0  0  0  0  0  0999 V2000
  -17.3461   18.3853  -15.2258 F   0  0  0  0  0  0
  -18.2864   19.0132  -14.5083 C   0  0  0  0  0  0
  -19.1575   18.2725  -13.7211 C   0  0  0  0  0  0
  -20.1480   18.9268  -12.9829 C   0  0  0  0  0  0
  -20.2739   20.3227  -13.0299 C   0  0  0  0  0  0
  -21.2902   21.0204  -12.3610 N   0  0  0  0  0  0
  -21.1808   22.1484  -11.5799 C   0  0  0  0  0  0
  -22.2410   22.7920  -11.0337 C   0  0  0  0  0  0
  -23.6028   22.2231  -11.2613 C   0  0  0  0  0  0
  -23.7693   21.3313  -12.0903 O   0  0  0  0  0  0
  -24.7602   22.7403  -10.4771 C   0  0  0  0  0  0
  -25.8380   23.4113  -11.0676 C   0  0  0  0  0  0
  -26.8969   23.8648  -10.2732 C   0  0  0  0  0  0
  -26.8860   23.6478   -8.8947 C   0  0  0  0  0  0
  -25.8220   22.9694   -8.3044 C   0  0  0  0  0  0
  -24.7656   22.5113   -9.0935 C   0  0  0  0  0  0
  -22.0502   24.0890  -10.3476 C   0  0  0  0  0  0
  -20.7599   24.6335  -10.2549 C   0  0  0  0  0  0
  -20.5378   25.8859   -9.6683 C   0  0  0  0  0  0
  -21.6114   26.6074   -9.1534 C   0  0  0  0  0  0
  -22.8970   26.0730   -9.2153 C   0  0  0  0  0  0
  -23.1161   24.8229   -9.8054 C   0  0  0  0  0  0
  -19.6210   23.8701  -10.8076 C   0  0  0  0  0  0
  -18.4649   24.2813  -10.7297 O   0  0  0  0  0  0
  -19.9255   22.6848  -11.4221 N   0  3  0  0  0  0
  -19.1499   22.1877  -11.8414 H   0  0  0  0  0  0
  -19.3733   21.0468  -13.8284 C   0  0  0  0  0  0
  -18.3825   20.3959  -14.5668 C   0  0  0  0  0  0
  -22.2289   20.6381  -12.4263 H   0  0  0  0  0  0
  1  2  1  0  0  0
  2  3  2  0  0  0
  2 28  1  0  0  0
  3  4  1  0  0  0
  4  5  2  0  0  0
  5  6  1  0  0  0
  5 27  1  0  0  0
  6  7  1  0  0  0
  6 29  1  0  0  0
  7  8  2  0  0  0
  7 25  1  0  0  0
  8  9  1  0  0  0
  8 17  1  0  0  0
  9 10  2  0  0  0
  9 11  1  0  0  0
 11 12  2  0  0  0
 11 16  1  0  0  0
 12 13  1  0  0  0
 13 14  2  0  0  0
 14 15  1  0  0  0
 15 16  2  0  0  0
 17 18  2  0  0  0
 17 22  1  0  0  0
 18 19  1  0  0  0
 18 23  1  0  0  0
 19 20  2  0  0  0
 20 21  1  0  0  0
 21 22  2  0  0  0
 23 24  2  0  0  0
 23 25  1  0  0  0
 25 26  1  0  0  0
 27 28  2  0  0  0
M  END
>  <CHROM.0>
-61.48605251,67.30160843,73.14333879,146.93826393,168.29685460,-178.65730394
84.50942151,-159.82460295

>  <CHROM.1>
133.37793451,176.22677975,-11.41152474,115.57109694,-21.72583632,22.44575949
-11.39272373,0.79904251,-0.23185950,-2.59407387

>  <Name>
F1172-0033

>  <RI>
2.68599e+07

>  <Rbt.Current_Directory>
/home/adria/Escritorio/rDock_CMTR_LC/2pxcA_model/inputs_sah

>  <Rbt.Executable>
rbdock ($Id: //depot/dev/client3/rdock/2013.1/src/exe/rbdock.cxx#4 $)

>  <Rbt.Library>
libRbt.so (2013.1, Build901 2013/11/27)

>  <Rbt.Parameter_File>
/home/adria/Escritorio/rDock_2013.1_src/data/scripts/dock.prm

>  <Rbt.Receptor>
sah_rdock.prm

>  <SCORE>
-44.1706

>  <SCORE.INTER>
-10.9331

>  <SCORE.INTER.CONST>
1

>  <SCORE.INTER.POLAR>
-0.625193

>  <SCORE.INTER.REPUL>
0.269699

>  <SCORE.INTER.ROT>
4

>  <SCORE.INTER.VDW>
-19.5559

>  <SCORE.INTER.norm>
-0.404928

>  <SCORE.INTRA>
-34.1652

>  <SCORE.INTRA.DIHEDRAL>
-76.3984

>  <SCORE.INTRA.DIHEDRAL.0>
94.8737

>  <SCORE.INTRA.POLAR>
-0.144104

>  <SCORE.INTRA.POLAR.0>
0

>  <SCORE.INTRA.REPUL>
0

>  <SCORE.INTRA.REPUL.0>
0

>  <SCORE.INTRA.VDW>
4.52393

>  <SCORE.INTRA.VDW.0>
-4.02371

>  <SCORE.INTRA.norm>
-1.26538

>  <SCORE.RESTR>
0

>  <SCORE.RESTR.CAVITY>
0

>  <SCORE.RESTR.norm>
0

>  <SCORE.SYSTEM>
0.927659

>  <SCORE.SYSTEM.CONST>
0

>  <SCORE.SYSTEM.DIHEDRAL>
7.3755

>  <SCORE.SYSTEM.POLAR>
-3.66736

>  <SCORE.SYSTEM.VDW>
9.70895

>  <SCORE.SYSTEM.norm>
0.0343577

>  <SCORE.heavy>
27

>  <SCORE.norm>
-1.63595

$$$$
F1172-0033
  rDOCK(R)          3D
libRbt.so/2013.1/901 2013/11/27
 29 32  0  0  0  0  0  0  0  0999 V2000
  -22.0281   26.9148   -9.7092 F   0  0  0  0  0  0
  -21.5932   25.9386  -10.5163 C   0  0  0  0  0  0
  -20.3439   25.3740  -10.2985 C   0  0  0  0  0  0
  -19.8841   24.3646  -11.1493 C   0  0  0  0  0  0
  -20.6687   23.9172  -12.2219 C   0  0  0  0  0  0
  -20.2268   22.9552  -13.1419 N   0  0  0  0  0  0
  -20.8526   21.7918  -13.5286 C   0  0  0  0  0  0
  -20.3770   20.9648  -14.4911 C   0  0  0  0  0  0
  -19.0803   21.3165  -15.1430 C   0  0  0  0  0  0
  -18.8159   22.4887  -15.4001 O   0  0  0  0  0  0
  -18.1062   20.2394  -15.4791 C   0  0  0  0  0  0
  -18.1627   18.9607  -14.9111 C   0  0  0  0  0  0
  -17.2204   17.9930  -15.2768 C   0  0  0  0  0  0
  -16.2265   18.2949  -16.2086 C   0  0  0  0  0  0
  -16.1740   19.5617  -16.7859 C   0  0  0  0  0  0
  -17.1145   20.5288  -16.4276 C   0  0  0  0  0  0
  -21.1943   19.8246  -14.9617 C   0  0  0  0  0  0
  -22.4558   19.6013  -14.3887 C   0  0  0  0  0  0
  -23.2905   18.5720  -14.8424 C   0  0  0  0  0  0
  -22.8634   17.7410  -15.8746 C   0  0  0  0  0  0
  -21.6043   17.9324  -16.4405 C   0  0  0  0  0  0
  -20.7743   18.9642  -15.9874 C   0  0  0  0  0  0
  -22.9118   20.4880  -13.2972 C   0  0  0  0  0  0
  -23.9935   20.3237  -12.7363 O   0  0  0  0  0  0
  -22.0682   21.5102  -12.9529 N   0  3  0  0  0  0
  -22.4038   22.1439  -12.2384 H   0  0  0  0  0  0
  -21.9320   24.5009  -12.4129 C   0  0  0  0  0  0
  -22.3942   25.5093  -11.5644 C   0  0  0  0  0  0
  -19.3145   23.1068  -13.5618 H   0  0  0  0  0  0
  1  2  1  0  0  0
  2  3  2  0  0  0
  2 28  1  0  0  0
  3  4  1  0  0  0
  4  5  2  0  0  0
  5  6  1  0  0  0
  5 27  1  0  0  0
  6  7  1  0  0  0
  6 29  1  0  0  0
  7  8  2  0  0  0
  7 25  1  0  0  0
  8  9  1  0  0  0
  8 17  1  0  0  0
  9 10  2  0  0  0
  9 11  1  0  0  0
 11 12  2  0  0  0
 11 16  1  0  0  0
 12 13  1  0  0  0
 13 14  2  0  0  0
 14 15  1  0  0  0
 15 16  2  0  0  0
 17 18  2  0  0  0
 17 22  1  0  0  0
 18 19  1  0  0  0
 18 23  1  0  0  0
 19 20  2  0  0  0
 20 21  1  0  0  0
 21 22  2  0  0  0
 23 24  2  0  0  0
 23 25  1  0  0  0
 25 26  1  0  0  0
 27 28  2  0  0  0
M  END
>  <CHROM.0>
-61.86957584,-74.92265278,72.66370661,64.72563923,-29.23750089,-58.65798102
-156.12510428,-161.96555515

>  <CHROM.1>
127.58344226,175.81064801,-38.72067667,-17.57491085,-20.49691567,21.45482114
-13.85637826,-1.90076925,-0.25075618,-2.56702637

>  <Name>
F1172-0033

>  <RI>
2.68599e+07

>  <Rbt.Current_Directory>
/home/adria/Escritorio/rDock_CMTR_LC/2pxcA_model/inputs_sah

>  <Rbt.Executable>
rbdock ($Id: //depot/dev/client3/rdock/2013.1/src/exe/rbdock.cxx#4 $)

>  <Rbt.Library>
libRbt.so (2013.1, Build901 2013/11/27)

>  <Rbt.Parameter_File>
/home/adria/Escritorio/rDock_2013.1_src/data/scripts/dock.prm

>  <Rbt.Receptor>
sah_rdock.prm

>  <SCORE>
-59.2725

>  <SCORE.INTER>
-14.824

>  <SCORE.INTER.CONST>
1

>  <SCORE.INTER.POLAR>
-0.0252244

>  <SCORE.INTER.REPUL>
0

>  <SCORE.INTER.ROT>
4

>  <SCORE.INTER.VDW>
-24.1383

>  <SCORE.INTER.norm>
-0.549038

>  <SCORE.INTRA>
-36.3989

>  <SCORE.INTRA.DIHEDRAL>
-80.0108

>  <SCORE.INTRA.DIHEDRAL.0>
94.8737

>  <SCORE.INTRA.POLAR>
0

>  <SCORE.INTRA.POLAR.0>
0

>  <SCORE.INTRA.REPUL>
0

>  <SCORE.INTRA.REPUL.0>
0

>  <SCORE.INTRA.VDW>
3.60653

>  <SCORE.INTRA.VDW.0>
-4.02371

>  <SCORE.INTRA.norm>
-1.34811

>  <SCORE.RESTR>
0

>  <SCORE.RESTR.CAVITY>
0

>  <SCORE.RESTR.norm>
0

>  <SCORE.SYSTEM>
-8.04954

>  <SCORE.SYSTEM.CONST>
0

>  <SCORE.SYSTEM.DIHEDRAL>
6.9933

>  <SCORE.SYSTEM.POLAR>
-4.20523

>  <SCORE.SYSTEM.REPUL>
0.0417867

>  <SCORE.SYSTEM.VDW>
2.54267

>  <SCORE.SYSTEM.norm>
-0.298131

>  <SCORE.heavy>
27

>  <SCORE.norm>
-2.19528

$$$$
F1172-0033
  rDOCK(R)          3D
libRbt.so/2013.1/901 2013/11/27
 29 32  0  0  0  0  0  0  0  0999 V2000
  -21.7908   25.5027   -9.7194 F   0  0  0  0  0  0
  -21.6389   24.3722  -10.4208 C   0  0  0  0  0  0
  -22.7521   23.6045  -10.7344 C   0  0  0  0  0  0
  -22.5920   22.4171  -11.4546 C   0  0  0  0  0  0
  -21.3198   21.9908  -11.8621 C   0  0  0  0  0  0
  -21.0987   20.7766  -12.5284 N   0  0  0  0  0  0
  -20.2989   20.5356  -13.6224 C   0  0  0  0  0  0
  -20.0975   19.3044  -14.1516 C   0  0  0  0  0  0
  -20.8140   18.1481  -13.5353 C   0  0  0  0  0  0
  -20.2735   17.4854  -12.6529 O   0  0  0  0  0  0
  -22.1894   17.8017  -13.9939 C   0  0  0  0  0  0
  -22.8009   18.4180  -15.0925 C   0  0  0  0  0  0
  -24.0929   18.0398  -15.4744 C   0  0  0  0  0  0
  -24.7739   17.0477  -14.7677 C   0  0  0  0  0  0
  -24.1647   16.4228  -13.6819 C   0  0  0  0  0  0
  -22.8743   16.7936  -13.3000 C   0  0  0  0  0  0
  -19.0942   19.1103  -15.2217 C   0  0  0  0  0  0
  -18.3692   20.2162  -15.6918 C   0  0  0  0  0  0
  -17.3675   20.0727  -16.6604 C   0  0  0  0  0  0
  -17.0865   18.8126  -17.1816 C   0  0  0  0  0  0
  -17.8116   17.7058  -16.7442 C   0  0  0  0  0  0
  -18.8093   17.8521  -15.7736 C   0  0  0  0  0  0
  -18.6633   21.5531  -15.1335 C   0  0  0  0  0  0
  -18.0827   22.5630  -15.5266 O   0  0  0  0  0  0
  -19.6100   21.6035  -14.1454 N   0  3  0  0  0  0
  -19.7750   22.5125  -13.7318 H   0  0  0  0  0  0
  -20.2126   22.7920  -11.5379 C   0  0  0  0  0  0
  -20.3694   23.9789  -10.8186 C   0  0  0  0  0  0
  -21.6123   19.9679  -12.1911 H   0  0  0  0  0  0
  1  2  1  0  0  0
  2  3  2  0  0  0
  2 28  1  0  0  0
  3  4  1  0  0  0
  4  5  2  0  0  0
  5  6  1  0  0  0
  5 27  1  0  0  0
  6  7  1  0  0  0
  6 29  1  0  0  0
  7  8  2  0  0  0
  7 25  1  0  0  0
  8  9  1  0  0  0
  8 17  1  0  0  0
  9 10  2  0  0  0
  9 11  1  0  0  0
 11 12  2  0  0  0
 11 16  1  0  0  0
 12 13  1  0  0  0
 13 14  2  0  0  0
 14 15  1  0  0  0
 15 16  2  0  0  0
 17 18  2  0  0  0
 17 22  1  0  0  0
 18 19  1  0  0  0
 18 23  1  0  0  0
 19 20  2  0  0  0
 20 21  1  0  0  0
 21 22  2  0  0  0
 23 24  2  0  0  0
 23 25  1  0  0  0
 25 26  1  0  0  0
 27 28  2  0  0  0
M  END
>  <CHROM.0>
-175.76888813,-166.02716309,-45.24795519,67.77342232,-31.23283194,-56.99396621
-157.20399879,-44.75717861

>  <CHROM.1>
136.04125060,176.37479978,-92.85963325,7.45037152,-20.70707033,20.27599757
-13.68847184,1.74643354,0.51581655,0.57128120

>  <Name>
F1172-0033

>  <RI>
2.68599e+07

>  <Rbt.Current_Directory>
/home/adria/Escritorio/rDock_CMTR_LC/2pxcA_model/inputs_sah

>  <Rbt.Executable>
rbdock ($Id: //depot/dev/client3/rdock/2013.1/src/exe/rbdock.cxx#4 $)

>  <Rbt.Library>
libRbt.so (2013.1, Build901 2013/11/27)

>  <Rbt.Parameter_File>
/home/adria/Escritorio/rDock_2013.1_src/data/scripts/dock.prm

>  <Rbt.Receptor>
sah_rdock.prm

>  <SCORE>
-51.1346

>  <SCORE.INTER>
-12.0737

>  <SCORE.INTER.CONST>
1

>  <SCORE.INTER.POLAR>
-1.18765

>  <SCORE.INTER.REPUL>
0

>  <SCORE.INTER.ROT>
4

>  <SCORE.INTER.VDW>
-17.4357

>  <SCORE.INTER.norm>
-0.447175

>  <SCORE.INTRA>
-35.3147

>  <SCORE.INTRA.DIHEDRAL>
-76.8637

>  <SCORE.INTRA.DIHEDRAL.0>
94.8737

>  <SCORE.INTRA.POLAR>
0

>  <SCORE.INTRA.POLAR.0>
0

>  <SCORE.INTRA.REPUL>
0

>  <SCORE.INTRA.REPUL.0>
0

>  <SCORE.INTRA.VDW>
3.11715

>  <SCORE.INTRA.VDW.0>
-4.02371

>  <SCORE.INTRA.norm>
-1.30795

>  <SCORE.RESTR>
0

>  <SCORE.RESTR.CAVITY>
0

>  <SCORE.RESTR.norm>
0

>  <SCORE.SYSTEM>
-3.74615

>  <SCORE.SYSTEM.CONST>
0

>  <SCORE.SYSTEM.DIHEDRAL>
8.71881

>  <SCORE.SYSTEM.POLAR>
-3.34786

>  <SCORE.SYSTEM.REPUL>
0.0251294

>  <SCORE.SYSTEM.VDW>
3.15153

>  <SCORE.SYSTEM.norm>
-0.138746

>  <SCORE.heavy>
27

>  <SCORE.norm>
-1.89387

$$$$
F1172-0033
  rDOCK(R)          3D
libRbt.so/2013.1/901 2013/11/27
 29 32  0  0  0  0  0  0  0  0999 V2000
  -21.7867   27.1609   -9.2644 F   0  0  0  0  0  0
  -21.4247   26.1597  -10.0767 C   0  0  0  0  0  0
  -20.4506   25.2604   -9.6653 C   0  0  0  0  0  0
  -20.0627   24.2235  -10.5188 C   0  0  0  0  0  0
  -20.6441   24.0822  -11.7870 C   0  0  0  0  0  0
  -20.2441   23.1003  -12.7051 N   0  0  0  0  0  0
  -20.4221   21.7375  -12.6304 C   0  0  0  0  0  0
  -20.0210   20.8717  -13.5927 C   0  0  0  0  0  0
  -19.3118   21.4244  -14.7850 C   0  0  0  0  0  0
  -19.3421   22.6306  -15.0178 O   0  0  0  0  0  0
  -18.5648   20.5067  -15.6915 C   0  0  0  0  0  0
  -18.8671   20.3716  -17.0521 C   0  0  0  0  0  0
  -18.1203   19.4967  -17.8489 C   0  0  0  0  0  0
  -17.0723   18.7605  -17.2947 C   0  0  0  0  0  0
  -16.7597   18.9010  -15.9444 C   0  0  0  0  0  0
  -17.4989   19.7759  -15.1467 C   0  0  0  0  0  0
  -20.3987   19.4433  -13.5117 C   0  0  0  0  0  0
  -21.1598   18.9952  -12.4210 C   0  0  0  0  0  0
  -21.5920   17.6659  -12.3310 C   0  0  0  0  0  0
  -21.2547   16.7608  -13.3336 C   0  0  0  0  0  0
  -20.4800   17.1813  -14.4130 C   0  0  0  0  0  0
  -20.0528   18.5112  -14.5018 C   0  0  0  0  0  0
  -21.5234   19.9581  -11.3598 C   0  0  0  0  0  0
  -22.1625   19.6182  -10.3660 O   0  0  0  0  0  0
  -21.1193   21.2525  -11.5501 N   0  3  0  0  0  0
  -21.4107   21.9188  -10.8459 H   0  0  0  0  0  0
  -21.6332   25.0018  -12.1731 C   0  0  0  0  0  0
  -22.0229   26.0387  -11.3225 C   0  0  0  0  0  0
  -19.7276   23.4174  -13.5202 H   0  0  0  0  0  0
  1  2  1  0  0  0
  2  3  2  0  0  0
  2 28  1  0  0  0
  3  4  1  0  0  0
  4  5  2  0  0  0
  5  6  1  0  0  0
  5 27  1  0  0  0
  6  7  1  0  0  0
  6 29  1  0  0  0
  7  8  2  0  0  0
  7 25  1  0  0  0
  8  9  1  0  0  0
  8 17  1  0  0  0
  9 10  2  0  0  0
  9 11  1  0  0  0
 11 12  2  0  0  0
 11 16  1  0  0  0
 12 13  1  0  0  0
 13 14  2  0  0  0
 14 15  1  0  0  0
 15 16  2  0  0  0
 17 18  2  0  0  0
 17 22  1  0  0  0
 18 19  1  0  0  0
 18 23  1  0  0  0
 19 20  2  0  0  0
 20 21  1  0  0  0
 21 22  2  0  0  0
 23 24  2  0  0  0
 23 25  1  0  0  0
 25 26  1  0  0  0
 27 28  2  0  0  0
M  END
>  <CHROM.0>
-61.15352141,66.18605676,108.03365748,64.71060047,-29.92287359,61.56357459
-36.52084647,-166.58691782

>  <CHROM.1>
69.19530231,178.45639847,-14.92096727,120.36341991,-20.18455087,21.39562820
-13.11909091,-2.07476295,-0.94786392,-2.90068608

>  <Name>
F1172-0033

>  <RI>
2.68599e+07

>  <Rbt.Current_Directory>
/home/adria/Escritorio/rDock_CMTR_LC/2pxcA_model/inputs_sah

>  <Rbt.Executable>
rbdock ($Id: //depot/dev/client3/rdock/2013.1/src/exe/rbdock.cxx#4 $)

>  <Rbt.Library>
libRbt.so (2013.1, Build901 2013/11/27)

>  <Rbt.Parameter_File>
/home/adria/Escritorio/rDock_2013.1_src/data/scripts/dock.prm

>  <Rbt.Receptor>
sah_rdock.prm

>  <SCORE>
-58.6142

>  <SCORE.INTER>
-17.978

>  <SCORE.INTER.CONST>
1

>  <SCORE.INTER.POLAR>
0

>  <SCORE.INTER.REPUL>
0

>  <SCORE.INTER.ROT>
4

>  <SCORE.INTER.VDW>
-27.378

>  <SCORE.INTER.norm>
-0.66585

>  <SCORE.INTRA>
-33.6156

>  <SCORE.INTRA.DIHEDRAL>
-72.7891

>  <SCORE.INTRA.DIHEDRAL.0>
94.8737

>  <SCORE.INTRA.POLAR>
-0.118253

>  <SCORE.INTRA.POLAR.0>
0

>  <SCORE.INTRA.REPUL>
0

>  <SCORE.INTRA.REPUL.0>
0

>  <SCORE.INTRA.VDW>
3.18102

>  <SCORE.INTRA.VDW.0>
-4.02371

>  <SCORE.INTRA.norm>
-1.24502

>  <SCORE.RESTR>
0

>  <SCORE.RESTR.CAVITY>
0

>  <SCORE.RESTR.norm>
0

>  <SCORE.SYSTEM>
-7.02066

>  <SCORE.SYSTEM.CONST>
0

>  <SCORE.SYSTEM.DIHEDRAL>
8.63691

>  <SCORE.SYSTEM.POLAR>
-4.26161

>  <SCORE.SYSTEM.VDW>
3.15034

>  <SCORE.SYSTEM.norm>
-0.260024

>  <SCORE.heavy>
27

>  <SCORE.norm>
-2.1709

$$$$
F1172-0033
  rDOCK(R)          3D
libRbt.so/2013.1/901 2013/11/27
 29 32  0  0  0  0  0  0  0  0999 V2000
  -21.8995   26.8376   -8.4425 F   0  0  0  0  0  0
  -21.4689   25.8758   -9.2688 C   0  0  0  0  0  0
  -20.1266   25.8221   -9.6187 C   0  0  0  0  0  0
  -19.6796   24.8265  -10.4922 C   0  0  0  0  0  0
  -20.5713   23.8825  -11.0214 C   0  0  0  0  0  0
  -20.1860   22.9058  -11.9512 N   0  0  0  0  0  0
  -20.5521   21.5798  -11.9988 C   0  0  0  0  0  0
  -20.3298   20.7749  -13.0662 C   0  0  0  0  0  0
  -19.6131   21.3498  -14.2435 C   0  0  0  0  0  0
  -19.6915   22.5514  -14.4882 O   0  0  0  0  0  0
  -18.8001   20.4597  -15.1204 C   0  0  0  0  0  0
  -18.0048   19.4217  -14.6196 C   0  0  0  0  0  0
  -17.2717   18.6181  -15.4998 C   0  0  0  0  0  0
  -17.3324   18.8436  -16.8756 C   0  0  0  0  0  0
  -18.1322   19.8670  -17.3794 C   0  0  0  0  0  0
  -18.8688   20.6683  -16.5055 C   0  0  0  0  0  0
  -20.9023   19.4109  -13.1006 C   0  0  0  0  0  0
  -21.6607   18.9570  -12.0104 C   0  0  0  0  0  0
  -22.2725   17.6970  -12.0225 C   0  0  0  0  0  0
  -22.1210   16.8664  -13.1295 C   0  0  0  0  0  0
  -21.3524   17.2901  -14.2120 C   0  0  0  0  0  0
  -20.7454   18.5512  -14.1983 C   0  0  0  0  0  0
  -21.8269   19.8418  -10.8378 C   0  0  0  0  0  0
  -22.4546   19.4883   -9.8415 O   0  0  0  0  0  0
  -21.2533   21.0820  -10.9269 N   0  3  0  0  0  0
  -21.4091   21.7028  -10.1427 H   0  0  0  0  0  0
  -21.9221   23.9561  -10.6431 C   0  0  0  0  0  0
  -22.3717   24.9495   -9.7704 C   0  0  0  0  0  0
  -19.5274   23.1909  -12.6699 H   0  0  0  0  0  0
  1  2  1  0  0  0
  2  3  2  0  0  0
  2 28  1  0  0  0
  3  4  1  0  0  0
  4  5  2  0  0  0
  5  6  1  0  0  0
  5 27  1  0  0  0
  6  7  1  0  0  0
  6 29  1  0  0  0
  7  8  2  0  0  0
  7 25  1  0  0  0
  8  9  1  0  0  0
  8 17  1  0  0  0
  9 10  2  0  0  0
  9 11  1  0  0  0
 11 12  2  0  0  0
 11 16  1  0  0  0
 12 13  1  0  0  0
 13 14  2  0  0  0
 14 15  1  0  0  0
 15 16  2  0  0  0
 17 18  2  0  0  0
 17 22  1  0  0  0
 18 19  1  0  0  0
 18 23  1  0  0  0
 19 20  2  0  0  0
 20 21  1  0  0  0
 21 22  2  0  0  0
 23 24  2  0  0  0
 23 25  1  0  0  0
 25 26  1  0  0  0
 27 28  2  0  0  0
M  END
>  <CHROM.0>
40.33070852,-74.23196495,75.41809085,62.34973063,-30.88943865,-58.11837610
-155.98602408,-162.24934088

>  <CHROM.1>
138.53050230,167.31226857,-28.31699700,-39.47322206,-20.45458610,21.29780205
-12.55737309,-1.94966945,-0.86260804,-2.70899743

>  <Name>
F1172-0033

>  <RI>
2.68599e+07

>  <Rbt.Current_Directory>
/home/adria/Escritorio/rDock_CMTR_LC/2pxcA_model/inputs_sah

>  <Rbt.Executable>
rbdock ($Id: //depot/dev/client3/rdock/2013.1/src/exe/rbdock.cxx#4 $)

>  <Rbt.Library>
libRbt.so (2013.1, Build901 2013/11/27)

>  <Rbt.Parameter_File>
/home/adria/Escritorio/rDock_2013.1_src/data/scripts/dock.prm

>  <Rbt.Receptor>
sah_rdock.prm

>  <SCORE>
-56.8914

>  <SCORE.INTER>
-18.4006

>  <SCORE.INTER.CONST>
1

>  <SCORE.INTER.POLAR>
-0.572497

>  <SCORE.INTER.REPUL>
0

>  <SCORE.INTER.ROT>
4

>  <SCORE.INTER.VDW>
-25.8541

>  <SCORE.INTER.norm>
-0.681503

>  <SCORE.INTRA>
-34.8405

>  <SCORE.INTRA.DIHEDRAL>
-76.6396

>  <SCORE.INTRA.DIHEDRAL.0>
94.8737

>  <SCORE.INTRA.POLAR>
0

>  <SCORE.INTRA.POLAR.0>
0

>  <SCORE.INTRA.REPUL>
0

>  <SCORE.INTRA.REPUL.0>
0

>  <SCORE.INTRA.VDW>
3.4793

>  <SCORE.INTRA.VDW.0>
-4.02371

>  <SCORE.INTRA.norm>
-1.29039

>  <SCORE.RESTR>
0

>  <SCORE.RESTR.CAVITY>
0

>  <SCORE.RESTR.norm>
0

>  <SCORE.SYSTEM>
-3.65031

>  <SCORE.SYSTEM.CONST>
0

>  <SCORE.SYSTEM.DIHEDRAL>
8.41548

>  <SCORE.SYSTEM.POLAR>
-4.10399

>  <SCORE.SYSTEM.REPUL>
0.16275

>  <SCORE.SYSTEM.VDW>
5.28178

>  <SCORE.SYSTEM.norm>
-0.135196

>  <SCORE.heavy>
27

>  <SCORE.norm>
-2.10709

$$$$
F1172-0033
  rDOCK(R)          3D
libRbt.so/2013.1/901 2013/11/27
 29 32  0  0  0  0  0  0  0  0999 V2000
  -17.2953   18.4590  -15.2767 F   0  0  0  0  0  0
  -18.2259   19.0305  -14.5018 C   0  0  0  0  0  0
  -19.0142   18.2382  -13.6785 C   0  0  0  0  0  0
  -19.9951   18.8334  -12.8799 C   0  0  0  0  0  0
  -20.1940   20.2213  -12.9022 C   0  0  0  0  0  0
  -21.2066   20.8592  -12.1708 N   0  0  0  0  0  0
  -21.1340   22.0329  -11.4555 C   0  0  0  0  0  0
  -22.2045   22.6300  -10.8775 C   0  0  0  0  0  0
  -23.5323   21.9563  -10.9913 C   0  0  0  0  0  0
  -24.2999   22.2538  -11.9036 O   0  0  0  0  0  0
  -23.9226   20.9192   -9.9942 C   0  0  0  0  0  0
  -23.1776   20.6604   -8.8372 C   0  0  0  0  0  0
  -23.6049   19.6769   -7.9382 C   0  0  0  0  0  0
  -24.7730   18.9551   -8.1871 C   0  0  0  0  0  0
  -25.5243   19.2179   -9.3304 C   0  0  0  0  0  0
  -25.1044   20.2011  -10.2279 C   0  0  0  0  0  0
  -22.0686   23.9726  -10.2704 C   0  0  0  0  0  0
  -20.8182   24.6096  -10.2855 C   0  0  0  0  0  0
  -20.6537   25.9045   -9.7773 C   0  0  0  0  0  0
  -21.7451   26.5766   -9.2336 C   0  0  0  0  0  0
  -22.9899   25.9517   -9.1886 C   0  0  0  0  0  0
  -23.1516   24.6591   -9.7006 C   0  0  0  0  0  0
  -19.6609   23.8982  -10.8688 C   0  0  0  0  0  0
  -18.5353   24.3924  -10.8835 O   0  0  0  0  0  0
  -19.9139   22.6630  -11.4030 N   0  3  0  0  0  0
  -19.1300   22.1989  -11.8442 H   0  0  0  0  0  0
  -19.3760   20.9987  -13.7385 C   0  0  0  0  0  0
  -18.3951   20.4070  -14.5374 C   0  0  0  0  0  0
  -22.1067   20.3904  -12.1281 H   0  0  0  0  0  0
  1  2  1  0  0  0
  2  3  2  0  0  0
  2 28  1  0  0  0
  3  4  1  0  0  0
  4  5  2  0  0  0
  5  6  1  0  0  0
  5 27  1  0  0  0
  6  7  1  0  0  0
  6 29  1  0  0  0
  7  8  2  0  0  0
  7 25  1  0  0  0
  8  9  1  0  0  0
  8 17  1  0  0  0
  9 10  2  0  0  0
  9 11  1  0  0  0
 11 12  2  0  0  0
 11 16  1  0  0  0
 12 13  1  0  0  0
 13 14  2  0  0  0
 14 15  1  0  0  0
 15 16  2  0  0  0
 17 18  2  0  0  0
 17 22  1  0  0  0
 18 19  1  0  0  0
 18 23  1  0  0  0
 19 20  2  0  0  0
 20 21  1  0  0  0
 21 22  2  0  0  0
 23 24  2  0  0  0
 23 25  1  0  0  0
 25 26  1  0  0  0
 27 28  2  0  0  0
M  END
>  <CHROM.0>
-59.88187230,66.70501527,111.58567313,-61.00330923,-29.53750144,-57.25131134
-35.54691663,-160.70261391

>  <CHROM.1>
138.21142554,173.90700860,-93.50145912,8.76220383,-21.42383771,21.74259651
-11.22570359,0.72702519,-0.59397657,-2.80290705

>  <Name>
F1172-0033

>  <RI>
2.68599e+07

>  <Rbt.Current_Directory>
/home/adria/Escritorio/rDock_CMTR_LC/2pxcA_model/inputs_sah

>  <Rbt.Executable>
rbdock ($Id: //depot/dev/client3/rdock/2013.1/src/exe/rbdock.cxx#4 $)

>  <Rbt.Library>
libRbt.so (2013.1, Build901 2013/11/27)

>  <Rbt.Parameter_File>
/home/adria/Escritorio/rDock_2013.1_src/data/scripts/dock.prm

>  <Rbt.Receptor>
sah_rdock.prm

>  <SCORE>
-52.4592

>  <SCORE.INTER>
-10.4259

>  <SCORE.INTER.CONST>
1

>  <SCORE.INTER.POLAR>
-0.683605

>  <SCORE.INTER.REPUL>
0.352752

>  <SCORE.INTER.ROT>
4

>  <SCORE.INTER.VDW>
-19.2654

>  <SCORE.INTER.norm>
-0.386145

>  <SCORE.INTRA>
-35.2562

>  <SCORE.INTRA.DIHEDRAL>
-76.731

>  <SCORE.INTRA.DIHEDRAL.0>
94.8737

>  <SCORE.INTRA.POLAR>
0

>  <SCORE.INTRA.POLAR.0>
0

>  <SCORE.INTRA.REPUL>
0

>  <SCORE.INTRA.REPUL.0>
0

>  <SCORE.INTRA.VDW>
3.10933

>  <SCORE.INTRA.VDW.0>
-4.02371

>  <SCORE.INTRA.norm>
-1.30578

>  <SCORE.RESTR>
0

>  <SCORE.RESTR.CAVITY>
0

>  <SCORE.RESTR.norm>
0

>  <SCORE.SYSTEM>
-6.77708

>  <SCORE.SYSTEM.CONST>
0

>  <SCORE.SYSTEM.DIHEDRAL>
9.1675

>  <SCORE.SYSTEM.POLAR>
-4.34202

>  <SCORE.SYSTEM.VDW>
3.40204

>  <SCORE.SYSTEM.norm>
-0.251003

>  <SCORE.heavy>
27

>  <SCORE.norm>
-1.94293

$$$$
F1172-0033
  rDOCK(R)          3D
libRbt.so/2013.1/901 2013/11/27
 29 32  0  0  0  0  0  0  0  0999 V2000
  -21.3517   26.5324  -10.0848 F   0  0  0  0  0  0
  -21.3482   25.2547  -10.4854 C   0  0  0  0  0  0
  -22.5462   24.5581  -10.5676 C   0  0  0  0  0  0
  -22.5411   23.2202  -10.9726 C   0  0  0  0  0  0
  -21.3399   22.5722  -11.2945 C   0  0  0  0  0  0
  -21.2741   21.2150  -11.6421 N   0  0  0  0  0  0
  -20.6179   20.6360  -12.7046 C   0  0  0  0  0  0
  -20.5710   19.2994  -12.9229 C   0  0  0  0  0  0
  -21.3047   18.4061  -11.9776 C   0  0  0  0  0  0
  -20.7328   17.9462  -10.9921 O   0  0  0  0  0  0
  -22.7356   18.0756  -12.2335 C   0  0  0  0  0  0
  -23.5050   17.3030  -11.3548 C   0  0  0  0  0  0
  -24.8460   17.0363  -11.6523 C   0  0  0  0  0  0
  -25.4221   17.5402  -12.8192 C   0  0  0  0  0  0
  -24.6642   18.3200  -13.6900 C   0  0  0  0  0  0
  -23.3273   18.5925  -13.3952 C   0  0  0  0  0  0
  -19.7067   18.7507  -13.9913 C   0  0  0  0  0  0
  -18.9527   19.6300  -14.7838 C   0  0  0  0  0  0
  -18.0752   19.1548  -15.7668 C   0  0  0  0  0  0
  -17.9508   17.7842  -15.9770 C   0  0  0  0  0  0
  -18.7085   16.8961  -15.2159 C   0  0  0  0  0  0
  -19.5816   17.3740  -14.2319 C   0  0  0  0  0  0
  -19.0801   21.0851  -14.5559 C   0  0  0  0  0  0
  -18.4683   21.9050  -15.2378 O   0  0  0  0  0  0
  -19.9082   21.4695  -13.5353 N   0  3  0  0  0  0
  -19.9565   22.4636  -13.3506 H   0  0  0  0  0  0
  -20.1442   23.3043  -11.2103 C   0  0  0  0  0  0
  -20.1460   24.6412  -10.8063 C   0  0  0  0  0  0
  -21.7992   20.5669  -11.0627 H   0  0  0  0  0  0
  1  2  1  0  0  0
  2  3  2  0  0  0
  2 28  1  0  0  0
  3  4  1  0  0  0
  4  5  2  0  0  0
  5  6  1  0  0  0
  5 27  1  0  0  0
  6  7  1  0  0  0
  6 29  1  0  0  0
  7  8  2  0  0  0
  7 25  1  0  0  0
  8  9  1  0  0  0
  8 17  1  0  0  0
  9 10  2  0  0  0
  9 11  1  0  0  0
 11 12  2  0  0  0
 11 16  1  0  0  0
 12 13  1  0  0  0
 13 14  2  0  0  0
 14 15  1  0  0  0
 15 16  2  0  0  0
 17 18  2  0  0  0
 17 22  1  0  0  0
 18 19  1  0  0  0
 18 23  1  0  0  0
 19 20  2  0  0  0
 20 21  1  0  0  0
 21 22  2  0  0  0
 23 24  2  0  0  0
 23 25  1  0  0  0
 25 26  1  0  0  0
 27 28  2  0  0  0
M  END
>  <CHROM.0>
-62.58116617,-69.15658279,109.78311050,64.00920986,23.63861681,60.16704382
-177.58706639,-163.62154967

>  <CHROM.1>
132.23433815,177.19501357,-91.43871122,-176.56622807,-21.05626384,20.42213488
-12.70170159,1.61110669,0.54213128,0.39802890

>  <Name>
F1172-0033

>  <RI>
2.68599e+07

>  <Rbt.Current_Directory>
/home/adria/Escritorio/rDock_CMTR_LC/2pxcA_model/inputs_sah

>  <Rbt.Executable>
rbdock ($Id: //depot/dev/client3/rdock/2013.1/src/exe/rbdock.cxx#4 $)

>  <Rbt.Library>
libRbt.so (2013.1, Build901 2013/11/27)

>  <Rbt.Parameter_File>
/home/adria/Escritorio/rDock_2013.1_src/data/scripts/dock.prm

>  <Rbt.Receptor>
sah_rdock.prm

>  <SCORE>
-43.2254

>  <SCORE.INTER>
-13.2613

>  <SCORE.INTER.CONST>
1

>  <SCORE.INTER.POLAR>
-0.887812

>  <SCORE.INTER.REPUL>
0

>  <SCORE.INTER.ROT>
4

>  <SCORE.INTER.VDW>
-19.6427

>  <SCORE.INTER.norm>
-0.491159

>  <SCORE.INTRA>
-35.4619

>  <SCORE.INTRA.DIHEDRAL>
-76.2236

>  <SCORE.INTRA.DIHEDRAL.0>
94.8737

>  <SCORE.INTRA.POLAR>
0

>  <SCORE.INTRA.POLAR.0>
0

>  <SCORE.INTRA.REPUL>
0

>  <SCORE.INTRA.REPUL.0>
0

>  <SCORE.INTRA.VDW>
2.64992

>  <SCORE.INTRA.VDW.0>
-4.02371

>  <SCORE.INTRA.norm>
-1.3134

>  <SCORE.RESTR>
0

>  <SCORE.RESTR.CAVITY>
0

>  <SCORE.RESTR.norm>
0

>  <SCORE.SYSTEM>
5.49777

>  <SCORE.SYSTEM.CONST>
0

>  <SCORE.SYSTEM.DIHEDRAL>
9.04004

>  <SCORE.SYSTEM.POLAR>
-3.78428

>  <SCORE.SYSTEM.REPUL>
0.0309625

>  <SCORE.SYSTEM.VDW>
13.6895

>  <SCORE.SYSTEM.norm>
0.203621

>  <SCORE.heavy>
27

>  <SCORE.norm>
-1.60094

$$$$
F1172-0033
  rDOCK(R)          3D
libRbt.so/2013.1/901 2013/11/27
 29 32  0  0  0  0  0  0  0  0999 V2000
  -21.0941   21.9060  -11.1754 F   0  0  0  0  0  0
  -20.6019   20.8632  -11.8563 C   0  0  0  0  0  0
  -19.2691   20.8647  -12.2445 C   0  0  0  0  0  0
  -18.7588   19.7825  -12.9673 C   0  0  0  0  0  0
  -19.5778   18.6961  -13.3072 C   0  0  0  0  0  0
  -19.1320   17.6184  -14.0862 N   0  0  0  0  0  0
  -18.2941   17.6421  -15.1779 C   0  0  0  0  0  0
  -17.7844   16.5298  -15.7605 C   0  0  0  0  0  0
  -18.1848   15.2008  -15.2096 C   0  0  0  0  0  0
  -19.0892   15.1222  -14.3814 O   0  0  0  0  0  0
  -17.4836   13.9685  -15.6700 C   0  0  0  0  0  0
  -16.2139   13.6004  -15.2084 C   0  0  0  0  0  0
  -15.6153   12.4254  -15.6767 C   0  0  0  0  0  0
  -16.2798   11.6160  -16.5990 C   0  0  0  0  0  0
  -17.5485   11.9715  -17.0514 C   0  0  0  0  0  0
  -18.1515   13.1403  -16.5837 C   0  0  0  0  0  0
  -16.7616   16.6495  -16.8230 C   0  0  0  0  0  0
  -16.3405   17.9249  -17.2302 C   0  0  0  0  0  0
  -15.3325   18.0879  -18.1890 C   0  0  0  0  0  0
  -14.7385   16.9676  -18.7637 C   0  0  0  0  0  0
  -15.1593   15.6929  -18.3893 C   0  0  0  0  0  0
  -16.1642   15.5334  -17.4283 C   0  0  0  0  0  0
  -16.9669   19.1143  -16.6150 C   0  0  0  0  0  0
  -16.6612   20.2564  -16.9519 O   0  0  0  0  0  0
  -17.8981   18.8742  -15.6401 N   0  3  0  0  0  0
  -18.2902   19.6902  -15.1874 H   0  0  0  0  0  0
  -20.9200   18.7181  -12.8937 C   0  0  0  0  0  0
  -21.4327   19.7978  -12.1712 C   0  0  0  0  0  0
  -19.4901   16.6989  -13.8453 H   0  0  0  0  0  0
  1  2  1  0  0  0
  2  3  2  0  0  0
  2 28  1  0  0  0
  3  4  1  0  0  0
  4  5  2  0  0  0
  5  6  1  0  0  0
  5 27  1  0  0  0
  6  7  1  0  0  0
  6 29  1  0  0  0
  7  8  2  0  0  0
  7 25  1  0  0  0
  8  9  1  0  0  0
  8 17  1  0  0  0
  9 10  2  0  0  0
  9 11  1  0  0  0
 11 12  2  0  0  0
 11 16  1  0  0  0
 12 13  1  0  0  0
 13 14  2  0  0  0
 14 15  1  0  0  0
 15 16  2  0  0  0
 17 18  2  0  0  0
 17 22  1  0  0  0
 18 19  1  0  0  0
 18 23  1  0  0  0
 19 20  2  0  0  0
 20 21  1  0  0  0
 21 22  2  0  0  0
 23 24  2  0  0  0
 23 25  1  0  0  0
 25 26  1  0  0  0
 27 28  2  0  0  0
M  END
>  <CHROM.0>
-177.32683475,-167.38506663,-11.10850963,-61.58776508,-30.37767011,-60.98997579
-37.09570287,-159.72439458

>  <CHROM.1>
-38.51930926,171.17347024,9.97659196,77.64427832,-17.89227017,17.08100639
-15.26515748,2.31179843,0.85179748,0.00717541

>  <Name>
F1172-0033

>  <RI>
2.68599e+07

>  <Rbt.Current_Directory>
/home/adria/Escritorio/rDock_CMTR_LC/2pxcA_model/inputs_sah

>  <Rbt.Executable>
rbdock ($Id: //depot/dev/client3/rdock/2013.1/src/exe/rbdock.cxx#4 $)

>  <Rbt.Library>
libRbt.so (2013.1, Build901 2013/11/27)

>  <Rbt.Parameter_File>
/home/adria/Escritorio/rDock_2013.1_src/data/scripts/dock.prm

>  <Rbt.Receptor>
sah_rdock.prm

>  <SCORE>
-52.6697

>  <SCORE.INTER>
-13.7019

>  <SCORE.INTER.CONST>
1

>  <SCORE.INTER.POLAR>
-0.65759

>  <SCORE.INTER.REPUL>
0

>  <SCORE.INTER.ROT>
4

>  <SCORE.INTER.VDW>
-20.8661

>  <SCORE.INTER.norm>
-0.507479

>  <SCORE.INTRA>
-33.427

>  <SCORE.INTRA.DIHEDRAL>
-75.5422

>  <SCORE.INTRA.DIHEDRAL.0>
94.8737

>  <SCORE.INTRA.POLAR>
-0.183366

>  <SCORE.INTRA.POLAR.0>
0

>  <SCORE.INTRA.REPUL>
0

>  <SCORE.INTRA.REPUL.0>
0

>  <SCORE.INTRA.VDW>
4.96751

>  <SCORE.INTRA.VDW.0>
-4.02371

>  <SCORE.INTRA.norm>
-1.23804

>  <SCORE.RESTR>
0

>  <SCORE.RESTR.CAVITY>
0

>  <SCORE.RESTR.norm>
0

>  <SCORE.SYSTEM>
-5.54076

>  <SCORE.SYSTEM.CONST>
0

>  <SCORE.SYSTEM.DIHEDRAL>
9.36313

>  <SCORE.SYSTEM.POLAR>
-4.23983

>  <SCORE.SYSTEM.VDW>
4.19309

>  <SCORE.SYSTEM.norm>
-0.205214

>  <SCORE.heavy>
27

>  <SCORE.norm>
-1.95073

$$$$
F1172-0033
  rDOCK(R)          3D
libRbt.so/2013.1/901 2013/11/27
 29 32  0  0  0  0  0  0  0  0999 V2000
  -19.2407   15.7525  -16.4078 F   0  0  0  0  0  0
  -19.6895   16.8622  -15.8075 C   0  0  0  0  0  0
  -20.2296   17.8862  -16.5735 C   0  0  0  0  0  0
  -20.6853   19.0504  -15.9481 C   0  0  0  0  0  0
  -20.6012   19.1974  -14.5561 C   0  0  0  0  0  0
  -20.9832   20.3698  -13.8878 N   0  0  0  0  0  0
  -21.7900   20.4977  -12.7800 C   0  0  0  0  0  0
  -22.0393   21.6777  -12.1620 C   0  0  0  0  0  0
  -21.4340   22.9152  -12.7383 C   0  0  0  0  0  0
  -21.2962   23.0273  -13.9542 O   0  0  0  0  0  0
  -20.9990   24.0160  -11.8321 C   0  0  0  0  0  0
  -21.5832   25.2885  -11.8488 C   0  0  0  0  0  0
  -21.1314   26.2749  -10.9650 C   0  0  0  0  0  0
  -20.1036   25.9952  -10.0635 C   0  0  0  0  0  0
  -19.5280   24.7269  -10.0344 C   0  0  0  0  0  0
  -19.9784   23.7384  -10.9111 C   0  0  0  0  0  0
  -22.7809   21.7041  -10.8819 C   0  0  0  0  0  0
  -23.2362   20.4980  -10.3271 C   0  0  0  0  0  0
  -23.8898   20.4663   -9.0886 C   0  0  0  0  0  0
  -24.1070   21.6519   -8.3920 C   0  0  0  0  0  0
  -23.6829   22.8622   -8.9374 C   0  0  0  0  0  0
  -23.0268   22.8900  -10.1734 C   0  0  0  0  0  0
  -22.9996   19.2384  -11.0640 C   0  0  0  0  0  0
  -23.4009   18.1550  -10.6434 O   0  0  0  0  0  0
  -22.2982   19.3429  -12.2354 N   0  3  0  0  0  0
  -22.0963   18.4737  -12.7133 H   0  0  0  0  0  0
  -20.0580   18.1415  -13.8058 C   0  0  0  0  0  0
  -19.6020   16.9771  -14.4277 C   0  0  0  0  0  0
  -20.6556   21.2482  -14.2786 H   0  0  0  0  0  0
  1  2  1  0  0  0
  2  3  2  0  0  0
  2 28  1  0  0  0
  3  4  1  0  0  0
  4  5  2  0  0  0
  5  6  1  0  0  0
  5 27  1  0  0  0
  6  7  1  0  0  0
  6 29  1  0  0  0
  7  8  2  0  0  0
  7 25  1  0  0  0
  8  9  1  0  0  0
  8 17  1  0  0  0
  9 10  2  0  0  0
  9 11  1  0  0  0
 11 12  2  0  0  0
 11 16  1  0  0  0
 12 13  1  0  0  0
 13 14  2  0  0  0
 14 15  1  0  0  0
 15 16  2  0  0  0
 17 18  2  0  0  0
 17 22  1  0  0  0
 18 19  1  0  0  0
 18 23  1  0  0  0
 19 20  2  0  0  0
 20 21  1  0  0  0
 21 22  2  0  0  0
 23 24  2  0  0  0
 23 25  1  0  0  0
 25 26  1  0  0  0
 27 28  2  0  0  0
M  END
>  <CHROM.0>
-64.78846695,-74.12843736,-44.60086408,63.88703993,168.31973028,57.48056172
83.54299426,-163.44931852

>  <CHROM.1>
131.48394803,176.12850171,34.36346607,-116.00129980,-21.46685568,20.97971971
-12.31531900,-1.24765782,0.88557605,0.39889520

>  <Name>
F1172-0033

>  <RI>
2.68599e+07

>  <Rbt.Current_Directory>
/home/adria/Escritorio/rDock_CMTR_LC/2pxcA_model/inputs_sah

>  <Rbt.Executable>
rbdock ($Id: //depot/dev/client3/rdock/2013.1/src/exe/rbdock.cxx#4 $)

>  <Rbt.Library>
libRbt.so (2013.1, Build901 2013/11/27)

>  <Rbt.Parameter_File>
/home/adria/Escritorio/rDock_2013.1_src/data/scripts/dock.prm

>  <Rbt.Receptor>
sah_rdock.prm

>  <SCORE>
-48.4551

>  <SCORE.INTER>
-11.5834

>  <SCORE.INTER.CONST>
1

>  <SCORE.INTER.POLAR>
-1.84481e-05

>  <SCORE.INTER.REPUL>
0.0127085

>  <SCORE.INTER.ROT>
4

>  <SCORE.INTER.VDW>
-21.0469

>  <SCORE.INTER.norm>
-0.429016

>  <SCORE.INTRA>
-34.2635

>  <SCORE.INTRA.DIHEDRAL>
-73.9185

>  <SCORE.INTRA.DIHEDRAL.0>
94.8737

>  <SCORE.INTRA.POLAR>
0

>  <SCORE.INTRA.POLAR.0>
0

>  <SCORE.INTRA.REPUL>
0

>  <SCORE.INTRA.REPUL.0>
0

>  <SCORE.INTRA.VDW>
2.69576

>  <SCORE.INTRA.VDW.0>
-4.02371

>  <SCORE.INTRA.norm>
-1.26902

>  <SCORE.RESTR>
0

>  <SCORE.RESTR.CAVITY>
0

>  <SCORE.RESTR.norm>
0

>  <SCORE.SYSTEM>
-2.60824

>  <SCORE.SYSTEM.CONST>
0

>  <SCORE.SYSTEM.DIHEDRAL>
3.94254

>  <SCORE.SYSTEM.POLAR>
-3.93709

>  <SCORE.SYSTEM.REPUL>
0.0404881

>  <SCORE.SYSTEM.VDW>
8.60417

>  <SCORE.SYSTEM.norm>
-0.0966014

>  <SCORE.heavy>
27

>  <SCORE.norm>
-1.79463

$$$$
F1172-0033
  rDOCK(R)          3D
libRbt.so/2013.1/901 2013/11/27
 29 32  0  0  0  0  0  0  0  0999 V2000
  -17.2503   18.3531  -15.0756 F   0  0  0  0  0  0
  -18.2270   18.9727  -14.4007 C   0  0  0  0  0  0
  -18.3912   20.3444  -14.5363 C   0  0  0  0  0  0
  -19.4019   20.9933  -13.8211 C   0  0  0  0  0  0
  -20.2506   20.2755  -12.9662 C   0  0  0  0  0  0
  -21.2357   20.8879  -12.1778 N   0  0  0  0  0  0
  -21.1508   22.0611  -11.4631 C   0  0  0  0  0  0
  -22.2106   22.6564  -10.8639 C   0  0  0  0  0  0
  -23.5396   21.9810  -10.9526 C   0  0  0  0  0  0
  -24.3200   22.2691  -11.8571 O   0  0  0  0  0  0
  -23.9154   20.9537   -9.9399 C   0  0  0  0  0  0
  -23.1082   20.6426   -8.8388 C   0  0  0  0  0  0
  -23.5248   19.6720   -7.9210 C   0  0  0  0  0  0
  -24.7435   19.0150   -8.0955 C   0  0  0  0  0  0
  -25.5558   19.3302   -9.1824 C   0  0  0  0  0  0
  -25.1465   20.3010  -10.0982 C   0  0  0  0  0  0
  -22.0648   23.9986  -10.2585 C   0  0  0  0  0  0
  -20.8157   24.6373  -10.2972 C   0  0  0  0  0  0
  -20.6431   25.9320   -9.7912 C   0  0  0  0  0  0
  -21.7246   26.6022   -9.2259 C   0  0  0  0  0  0
  -22.9674   25.9756   -9.1573 C   0  0  0  0  0  0
  -23.1374   24.6832   -9.6672 C   0  0  0  0  0  0
  -19.6691   23.9279  -10.9035 C   0  0  0  0  0  0
  -18.5445   24.4235  -10.9395 O   0  0  0  0  0  0
  -19.9308   22.6928  -11.4337 N   0  3  0  0  0  0
  -19.1549   22.2301  -11.8904 H   0  0  0  0  0  0
  -20.0664   18.8874  -12.8554 C   0  0  0  0  0  0
  -19.0577   18.2363  -13.5688 C   0  0  0  0  0  0
  -22.1211   20.3984  -12.0875 H   0  0  0  0  0  0
  1  2  1  0  0  0
  2  3  2  0  0  0
  2 28  1  0  0  0
  3  4  1  0  0  0
  4  5  2  0  0  0
  5  6  1  0  0  0
  5 27  1  0  0  0
  6  7  1  0  0  0
  6 29  1  0  0  0
  7  8  2  0  0  0
  7 25  1  0  0  0
  8  9  1  0  0  0
  8 17  1  0  0  0
  9 10  2  0  0  0
  9 11  1  0  0  0
 11 12  2  0  0  0
 11 16  1  0  0  0
 12 13  1  0  0  0
 13 14  2  0  0  0
 14 15  1  0  0  0
 15 16  2  0  0  0
 17 18  2  0  0  0
 17 22  1  0  0  0
 18 19  1  0  0  0
 18 23  1  0  0  0
 19 20  2  0  0  0
 20 21  1  0  0  0
 21 22  2  0  0  0
 23 24  2  0  0  0
 23 25  1  0  0  0
 25 26  1  0  0  0
 27 28  2  0  0  0
M  END
>  <CHROM.0>
-63.65491182,-166.53690042,-164.75471133,62.22366424,-31.24159109,-59.92834282
-156.01968771,-159.65151628

>  <CHROM.1>
-41.18895512,171.51060065,-92.80636688,4.26550055,-21.42611555,21.76009407
-11.19552059,0.72545026,-0.59678926,-2.81831772

>  <Name>
F1172-0033

>  <RI>
2.68599e+07

>  <Rbt.Current_Directory>
/home/adria/Escritorio/rDock_CMTR_LC/2pxcA_model/inputs_sah

>  <Rbt.Executable>
rbdock ($Id: //depot/dev/client3/rdock/2013.1/src/exe/rbdock.cxx#4 $)

>  <Rbt.Library>
libRbt.so (2013.1, Build901 2013/11/27)

>  <Rbt.Parameter_File>
/home/adria/Escritorio/rDock_2013.1_src/data/scripts/dock.prm

>  <Rbt.Receptor>
sah_rdock.prm

>  <SCORE>
-51.6931

>  <SCORE.INTER>
-9.83593

>  <SCORE.INTER.CONST>
1

>  <SCORE.INTER.POLAR>
-0.704247

>  <SCORE.INTER.REPUL>
0.388192

>  <SCORE.INTER.ROT>
4

>  <SCORE.INTER.VDW>
-18.7824

>  <SCORE.INTER.norm>
-0.364294

>  <SCORE.INTRA>
-35.447

>  <SCORE.INTRA.DIHEDRAL>
-76.1507

>  <SCORE.INTRA.DIHEDRAL.0>
94.8737

>  <SCORE.INTRA.POLAR>
0

>  <SCORE.INTRA.POLAR.0>
0

>  <SCORE.INTRA.REPUL>
0

>  <SCORE.INTRA.REPUL.0>
0

>  <SCORE.INTRA.VDW>
2.62838

>  <SCORE.INTRA.VDW.0>
-4.02371

>  <SCORE.INTRA.norm>
-1.31285

>  <SCORE.RESTR>
0

>  <SCORE.RESTR.CAVITY>
0

>  <SCORE.RESTR.norm>
0

>  <SCORE.SYSTEM>
-6.4102

>  <SCORE.SYSTEM.CONST>
0

>  <SCORE.SYSTEM.DIHEDRAL>
6.6805

>  <SCORE.SYSTEM.POLAR>
-3.73275

>  <SCORE.SYSTEM.VDW>
2.94091

>  <SCORE.SYSTEM.norm>
-0.237415

>  <SCORE.heavy>
27

>  <SCORE.norm>
-1.91456

$$$$
F1172-0033
  rDOCK(R)          3D
libRbt.so/2013.1/901 2013/11/27
 29 32  0  0  0  0  0  0  0  0999 V2000
  -23.1286   18.1857  -10.7551 F   0  0  0  0  0  0
  -22.2789   18.0186  -11.7765 C   0  0  0  0  0  0
  -22.6132   17.1582  -12.8133 C   0  0  0  0  0  0
  -21.7202   16.9731  -13.8727 C   0  0  0  0  0  0
  -20.4893   17.6443  -13.8996 C   0  0  0  0  0  0
  -19.5320   17.4433  -14.9047 N   0  0  0  0  0  0
  -18.7445   16.3362  -15.1255 C   0  0  0  0  0  0
  -17.8451   16.2408  -16.1347 C   0  0  0  0  0  0
  -17.6718   17.4187  -17.0361 C   0  0  0  0  0  0
  -18.5594   17.7265  -17.8283 O   0  0  0  0  0  0
  -16.4175   18.2216  -16.9699 C   0  0  0  0  0  0
  -16.4133   19.6078  -16.7723 C   0  0  0  0  0  0
  -15.1986   20.2999  -16.7127 C   0  0  0  0  0  0
  -13.9904   19.6144  -16.8452 C   0  0  0  0  0  0
  -13.9892   18.2335  -17.0292 C   0  0  0  0  0  0
  -15.1983   17.5382  -17.0848 C   0  0  0  0  0  0
  -17.1608   14.9563  -16.4015 C   0  0  0  0  0  0
  -17.4410   13.8472  -15.5884 C   0  0  0  0  0  0
  -16.8639   12.5957  -15.8387 C   0  0  0  0  0  0
  -15.9842   12.4422  -16.9068 C   0  0  0  0  0  0
  -15.6756   13.5373  -17.7115 C   0  0  0  0  0  0
  -16.2567   14.7856  -17.4609 C   0  0  0  0  0  0
  -18.3802   14.0090  -14.4583 C   0  0  0  0  0  0
  -18.6417   13.0823  -13.6938 O   0  0  0  0  0  0
  -18.9526   15.2449  -14.3167 N   0  3  0  0  0  0
  -19.6312   15.3393  -13.5715 H   0  0  0  0  0  0
  -20.1815   18.5150  -12.8413 C   0  0  0  0  0  0
  -21.0717   18.7022  -11.7816 C   0  0  0  0  0  0
  -19.3644   18.2176  -15.5404 H   0  0  0  0  0  0
  1  2  1  0  0  0
  2  3  2  0  0  0
  2 28  1  0  0  0
  3  4  1  0  0  0
  4  5  2  0  0  0
  5  6  1  0  0  0
  5 27  1  0  0  0
  6  7  1  0  0  0
  6 29  1  0  0  0
  7  8  2  0  0  0
  7 25  1  0  0  0
  8  9  1  0  0  0
  8 17  1  0  0  0
  9 10  2  0  0  0
  9 11  1  0  0  0
 11 12  2  0  0  0
 11 16  1  0  0  0
 12 13  1  0  0  0
 13 14  2  0  0  0
 14 15  1  0  0  0
 15 16  2  0  0  0
 17 18  2  0  0  0
 17 22  1  0  0  0
 18 19  1  0  0  0
 18 23  1  0  0  0
 19 20  2  0  0  0
 20 21  1  0  0  0
 21 22  2  0  0  0
 23 24  2  0  0  0
 23 25  1  0  0  0
 25 26  1  0  0  0
 27 28  2  0  0  0
M  END
>  <CHROM.0>
-59.00253779,-75.63411653,-6.44908342,-61.83878651,-30.10852916,-175.35362623
-37.39856174,-161.99201802

>  <CHROM.1>
-70.67985963,179.85387019,-70.55455137,-125.84299275,-18.25822483,16.62026254
-15.20512122,-2.96226879,-0.65783111,-3.11750434

>  <Name>
F1172-0033

>  <RI>
2.68599e+07

>  <Rbt.Current_Directory>
/home/adria/Escritorio/rDock_CMTR_LC/2pxcA_model/inputs_sah

>  <Rbt.Executable>
rbdock ($Id: //depot/dev/client3/rdock/2013.1/src/exe/rbdock.cxx#4 $)

>  <Rbt.Library>
libRbt.so (2013.1, Build901 2013/11/27)

>  <Rbt.Parameter_File>
/home/adria/Escritorio/rDock_2013.1_src/data/scripts/dock.prm

>  <Rbt.Receptor>
sah_rdock.prm

>  <SCORE>
-52.6661

>  <SCORE.INTER>
-14.7502

>  <SCORE.INTER.CONST>
1

>  <SCORE.INTER.POLAR>
-0.226897

>  <SCORE.INTER.REPUL>
0.0523256

>  <SCORE.INTER.ROT>
4

>  <SCORE.INTER.VDW>
-23.6404

>  <SCORE.INTER.norm>
-0.546303

>  <SCORE.INTRA>
-30.7816

>  <SCORE.INTRA.DIHEDRAL>
-64.5714

>  <SCORE.INTRA.DIHEDRAL.0>
94.8737

>  <SCORE.INTRA.POLAR>
0

>  <SCORE.INTRA.POLAR.0>
0

>  <SCORE.INTRA.REPUL>
0

>  <SCORE.INTRA.REPUL.0>
0

>  <SCORE.INTRA.VDW>
1.50414

>  <SCORE.INTRA.VDW.0>
-4.02371

>  <SCORE.INTRA.norm>
-1.14006

>  <SCORE.RESTR>
0

>  <SCORE.RESTR.CAVITY>
0

>  <SCORE.RESTR.norm>
0

>  <SCORE.SYSTEM>
-7.13432

>  <SCORE.SYSTEM.CONST>
0

>  <SCORE.SYSTEM.DIHEDRAL>
9.87187

>  <SCORE.SYSTEM.POLAR>
-4.6577

>  <SCORE.SYSTEM.REPUL>
0.0428963

>  <SCORE.SYSTEM.VDW>
3.55145

>  <SCORE.SYSTEM.norm>
-0.264234

>  <SCORE.heavy>
27

>  <SCORE.norm>
-1.95059

$$$$
