F1609-0781
  rDOCK(R)          3D
libRbt.so/2013.1/901 2013/11/27
 31 34  0  0  0  0  0  0  0  0999 V2000
  -23.4625   22.9775  -10.2563 C   0  0  0  0  0  0
  -22.1191   22.9522  -10.7354 O   0  0  0  0  0  0
  -21.8757   21.7318  -11.3106 C   0  0  0  0  0  0
  -21.9701   20.3012  -10.3041 C   0  0  0  0  0  0
  -21.8221   18.7389  -11.1003 C   0  0  0  0  0  0
  -21.4409   18.6046  -13.0962 C   0  0  0  0  0  0
  -21.3748   20.1870  -13.9759 C   0  0  0  0  0  0
  -21.5982   21.6948  -13.0749 C   0  0  0  0  0  0
  -20.4104   17.3311  -14.2417 S   0  0  0  0  0  0
  -20.0665   16.1573  -13.4613 O   0  0  0  0  0  0
  -21.2839   17.1385  -15.3984 O   0  0  0  0  0  0
  -18.9015   18.0818  -14.9392 C   0  0  0  0  0  0
  -18.1088   17.6005  -16.0164 C   0  0  0  0  0  0
  -18.2315   16.3725  -16.6586 N   0  0  0  0  0  0
  -18.9746   15.2165  -16.2563 C   0  0  0  0  0  0
  -18.1002   14.1593  -15.7209 C   0  0  0  0  0  0
  -16.7331   13.7558  -16.7957 C   0  0  0  0  0  0
  -15.4469   12.7173  -16.3401 C   0  0  0  0  0  0
  -15.4880   11.9945  -14.7291 C   0  0  0  0  0  0
  -17.0412   12.3797  -13.4659 C   0  0  0  0  0  0
  -18.2927   13.5214  -14.0504 C   0  0  0  0  0  0
  -16.9642   18.3862  -16.4068 C   0  0  0  0  0  0
  -16.7115   19.5955  -15.7245 C   0  0  0  0  0  0
  -15.6754   20.4170  -16.1499 C   0  0  0  0  0  0
  -14.8452   20.0737  -17.2185 C   0  0  0  0  0  0
  -15.0242   18.8555  -17.8456 C   0  0  0  0  0  0
  -13.9998   18.3869  -19.1443 Cl  0  0  0  0  0  0
  -16.0533   18.0139  -17.4368 C   0  0  0  0  0  0
  -17.4282   19.9964  -14.6723 N   0  0  0  0  0  0
  -18.4923   19.2478  -14.3001 C   0  0  0  0  0  0
  -17.5662   16.1560  -17.3874 H   0  0  0  0  0  0
  1  2  1  0  0  0
  2  3  1  0  0  0
  3  4  2  0  0  0
  3  8  1  0  0  0
  4  5  1  0  0  0
  5  6  2  0  0  0
  6  7  1  0  0  0
  6  9  1  0  0  0
  7  8  2  0  0  0
  9 10  2  0  0  0
  9 11  2  0  0  0
  9 12  1  0  0  0
 12 13  2  0  0  0
 12 30  1  0  0  0
 13 14  1  0  0  0
 13 22  1  0  0  0
 14 15  1  0  0  0
 14 31  1  0  0  0
 15 16  1  0  0  0
 16 17  2  0  0  0
 16 21  1  0  0  0
 17 18  1  0  0  0
 18 19  2  0  0  0
 19 20  1  0  0  0
 20 21  2  0  0  0
 22 23  2  0  0  0
 22 28  1  0  0  0
 23 24  1  0  0  0
 23 29  1  0  0  0
 24 25  2  0  0  0
 25 26  1  0  0  0
 26 27  1  0  0  0
 26 28  2  0  0  0
 29 30  2  0  0  0
M  END
>  <CHROM.0>
-178.79012665,-70.94035402,-44.41369123,-59.26682018,168.36139269,-177.78215405
-37.30994668,-167.92143674

>  <CHROM.1>
-62.54611325,11.73233513,-164.18959337,-13.23084991,-104.33651477,-51.23438406
-18.51483259,17.91094192,-14.85724739,-2.61981113,-0.72510628,3.09273984

>  <Name>
F1609-0781

>  <RI>
1.90201e+07

>  <Rbt.Current_Directory>
/home/adria/Escritorio/rDock_CMTR_LC/2pxcA_model/inputs_sah

>  <Rbt.Executable>
rbdock ($Id: //depot/dev/client3/rdock/2013.1/src/exe/rbdock.cxx#4 $)

>  <Rbt.Library>
libRbt.so (2013.1, Build901 2013/11/27)

>  <Rbt.Parameter_File>
/home/adria/Escritorio/rDock_2013.1_src/data/scripts/dock.prm

>  <Rbt.Receptor>
sah_rdock.prm

>  <SCORE>
-299.213

>  <SCORE.INTER>
-16.5747

>  <SCORE.INTER.CONST>
1

>  <SCORE.INTER.POLAR>
-0.810602

>  <SCORE.INTER.REPUL>
0

>  <SCORE.INTER.ROT>
6

>  <SCORE.INTER.VDW>
-25.2187

>  <SCORE.INTER.norm>
-0.552491

>  <SCORE.INTRA>
-280.653

>  <SCORE.INTRA.DIHEDRAL>
0.352304

>  <SCORE.INTRA.DIHEDRAL.0>
10.0435

>  <SCORE.INTRA.POLAR>
0

>  <SCORE.INTRA.POLAR.0>
0

>  <SCORE.INTRA.REPUL>
0

>  <SCORE.INTRA.REPUL.0>
0

>  <SCORE.INTRA.VDW>
-280.829

>  <SCORE.INTRA.VDW.0>
279.063

>  <SCORE.INTRA.norm>
-9.3551

>  <SCORE.RESTR>
0

>  <SCORE.RESTR.CAVITY>
0

>  <SCORE.RESTR.norm>
0

>  <SCORE.SYSTEM>
-1.98491

>  <SCORE.SYSTEM.CONST>
0

>  <SCORE.SYSTEM.DIHEDRAL>
3.14956

>  <SCORE.SYSTEM.POLAR>
-3.83036

>  <SCORE.SYSTEM.REPUL>
0.0346519

>  <SCORE.SYSTEM.VDW>
9.29026

>  <SCORE.SYSTEM.norm>
-0.0661638

>  <SCORE.heavy>
30

>  <SCORE.norm>
-9.97376

$$$$
F1609-0781
  rDOCK(R)          3D
libRbt.so/2013.1/901 2013/11/27
 31 34  0  0  0  0  0  0  0  0999 V2000
  -15.0274   16.1966  -18.5215 C   0  0  0  0  0  0
  -16.4378   15.9944  -18.5914 O   0  0  0  0  0  0
  -17.0459   16.7753  -17.6428 C   0  0  0  0  0  0
  -16.8809   18.5152  -17.7634 C   0  0  0  0  0  0
  -17.8091   19.4973  -16.6364 C   0  0  0  0  0  0
  -18.9404   18.6409  -15.1756 C   0  0  0  0  0  0
  -18.9913   16.8302  -15.2028 C   0  0  0  0  0  0
  -18.0600   15.9506  -16.4253 C   0  0  0  0  0  0
  -19.4226   19.1451  -13.3023 S   0  0  0  0  0  0
  -20.0255   18.0033  -12.6404 O   0  0  0  0  0  0
  -18.1643   19.6525  -12.7572 O   0  0  0  0  0  0
  -20.5514   20.5761  -13.2317 C   0  0  0  0  0  0
  -21.9003   20.5983  -12.7842 C   0  0  0  0  0  0
  -22.6885   19.4999  -12.4558 N   0  0  0  0  0  0
  -23.0037   18.9727  -11.1622 C   0  0  0  0  0  0
  -23.8646   19.8854  -10.3911 C   0  0  0  0  0  0
  -25.6048   19.5149  -10.5381 C   0  0  0  0  0  0
  -26.8166   20.2759   -9.5932 C   0  0  0  0  0  0
  -26.3171   21.5046   -8.4270 C   0  0  0  0  0  0
  -24.3501   22.0063   -8.2371 C   0  0  0  0  0  0
  -23.1841   21.0981   -9.2505 C   0  0  0  0  0  0
  -22.5888   21.8655  -12.8004 C   0  0  0  0  0  0
  -21.8838   23.0109  -13.2275 C   0  0  0  0  0  0
  -22.4947   24.2564  -13.1554 C   0  0  0  0  0  0
  -23.8051   24.4164  -12.7012 C   0  0  0  0  0  0
  -24.5398   23.2978  -12.3576 C   0  0  0  0  0  0
  -26.1666   23.4556  -11.8245 Cl  0  0  0  0  0  0
  -23.9515   22.0392  -12.4233 C   0  0  0  0  0  0
  -20.6392   22.9581  -13.7070 N   0  0  0  0  0  0
  -20.0026   21.7640  -13.7040 C   0  0  0  0  0  0
  -22.9097   18.8446  -13.1922 H   0  0  0  0  0  0
  1  2  1  0  0  0
  2  3  1  0  0  0
  3  4  2  0  0  0
  3  8  1  0  0  0
  4  5  1  0  0  0
  5  6  2  0  0  0
  6  7  1  0  0  0
  6  9  1  0  0  0
  7  8  2  0  0  0
  9 10  2  0  0  0
  9 11  2  0  0  0
  9 12  1  0  0  0
 12 13  2  0  0  0
 12 30  1  0  0  0
 13 14  1  0  0  0
 13 22  1  0  0  0
 14 15  1  0  0  0
 14 31  1  0  0  0
 15 16  1  0  0  0
 16 17  2  0  0  0
 16 21  1  0  0  0
 17 18  1  0  0  0
 18 19  2  0  0  0
 19 20  1  0  0  0
 20 21  2  0  0  0
 22 23  2  0  0  0
 22 28  1  0  0  0
 23 24  1  0  0  0
 23 29  1  0  0  0
 24 25  2  0  0  0
 25 26  1  0  0  0
 26 27  1  0  0  0
 26 28  2  0  0  0
 29 30  2  0  0  0
M  END
>  <CHROM.0>
-59.30805549,68.76408273,75.43423295,-59.68802778,168.55369625,68.38934812
-36.32557060,-159.41380464

>  <CHROM.1>
62.45060642,-167.59848836,113.67678037,100.24349044,68.07888312,94.58063403
-21.44667587,20.25259597,-13.19723903,-0.19475618,0.75917641,-0.39517090

>  <Name>
F1609-0781

>  <RI>
1.90201e+07

>  <Rbt.Current_Directory>
/home/adria/Escritorio/rDock_CMTR_LC/2pxcA_model/inputs_sah

>  <Rbt.Executable>
rbdock ($Id: //depot/dev/client3/rdock/2013.1/src/exe/rbdock.cxx#4 $)

>  <Rbt.Library>
libRbt.so (2013.1, Build901 2013/11/27)

>  <Rbt.Parameter_File>
/home/adria/Escritorio/rDock_2013.1_src/data/scripts/dock.prm

>  <Rbt.Receptor>
sah_rdock.prm

>  <SCORE>
-292.155

>  <SCORE.INTER>
-12.8169

>  <SCORE.INTER.CONST>
1

>  <SCORE.INTER.POLAR>
-0.758164

>  <SCORE.INTER.REPUL>
0

>  <SCORE.INTER.ROT>
6

>  <SCORE.INTER.VDW>
-21.6391

>  <SCORE.INTER.norm>
-0.427229

>  <SCORE.INTRA>
-277.273

>  <SCORE.INTRA.DIHEDRAL>
10.6083

>  <SCORE.INTRA.DIHEDRAL.0>
10.0435

>  <SCORE.INTRA.POLAR>
0

>  <SCORE.INTRA.POLAR.0>
0

>  <SCORE.INTRA.REPUL>
0

>  <SCORE.INTRA.REPUL.0>
0

>  <SCORE.INTRA.VDW>
-282.577

>  <SCORE.INTRA.VDW.0>
279.063

>  <SCORE.INTRA.norm>
-9.24243

>  <SCORE.RESTR>
0.0154722

>  <SCORE.RESTR.CAVITY>
0.0154722

>  <SCORE.RESTR.norm>
0.00051574

>  <SCORE.SYSTEM>
-2.08064

>  <SCORE.SYSTEM.CONST>
0

>  <SCORE.SYSTEM.DIHEDRAL>
3.53884

>  <SCORE.SYSTEM.POLAR>
-3.69259

>  <SCORE.SYSTEM.VDW>
8.70474

>  <SCORE.SYSTEM.norm>
-0.0693545

>  <SCORE.heavy>
30

>  <SCORE.norm>
-9.7385

$$$$
F1609-0781
  rDOCK(R)          3D
libRbt.so/2013.1/901 2013/11/27
 31 34  0  0  0  0  0  0  0  0999 V2000
  -15.0084   19.3700  -16.6951 C   0  0  0  0  0  0
  -16.2078   19.7192  -17.3838 O   0  0  0  0  0  0
  -17.2591   19.6529  -16.5064 C   0  0  0  0  0  0
  -18.0527   21.1436  -16.0408 C   0  0  0  0  0  0
  -19.5019   21.0153  -15.0509 C   0  0  0  0  0  0
  -20.1629   19.2105  -14.3782 C   0  0  0  0  0  0
  -19.2170   17.7786  -14.9589 C   0  0  0  0  0  0
  -17.8088   18.0296  -16.0025 C   0  0  0  0  0  0
  -21.0786   18.5868  -12.7144 S   0  0  0  0  0  0
  -22.0765   17.5927  -13.0622 O   0  0  0  0  0  0
  -19.9702   18.1588  -11.8620 O   0  0  0  0  0  0
  -21.8543   19.9536  -11.7887 C   0  0  0  0  0  0
  -23.0396   19.9109  -11.0055 C   0  0  0  0  0  0
  -23.9401   18.8545  -10.9121 N   0  0  0  0  0  0
  -25.3532   18.8530  -11.1442 C   0  0  0  0  0  0
  -25.6921   19.3768  -12.4782 C   0  0  0  0  0  0
  -25.6895   21.1601  -12.5633 C   0  0  0  0  0  0
  -25.8430   22.0369  -14.0288 C   0  0  0  0  0  0
  -26.0329   21.1266  -15.5304 C   0  0  0  0  0  0
  -26.0861   19.0887  -15.5006 C   0  0  0  0  0  0
  -25.8646   18.2988  -13.9074 C   0  0  0  0  0  0
  -23.4469   21.1254  -10.3429 C   0  0  0  0  0  0
  -22.6379   22.2735  -10.4818 C   0  0  0  0  0  0
  -22.9560   23.4241   -9.7716 C   0  0  0  0  0  0
  -24.0755   23.4994   -8.9409 C   0  0  0  0  0  0
  -24.9257   22.4134   -8.8570 C   0  0  0  0  0  0
  -26.3304   22.4829   -7.8683 Cl  0  0  0  0  0  0
  -24.6304   21.2503   -9.5601 C   0  0  0  0  0  0
  -21.5654   22.3117  -11.2754 N   0  0  0  0  0  0
  -21.1959   21.1734  -11.9071 C   0  0  0  0  0  0
  -23.6396   18.0241  -10.4214 H   0  0  0  0  0  0
  1  2  1  0  0  0
  2  3  1  0  0  0
  3  4  2  0  0  0
  3  8  1  0  0  0
  4  5  1  0  0  0
  5  6  2  0  0  0
  6  7  1  0  0  0
  6  9  1  0  0  0
  7  8  2  0  0  0
  9 10  2  0  0  0
  9 11  2  0  0  0
  9 12  1  0  0  0
 12 13  2  0  0  0
 12 30  1  0  0  0
 13 14  1  0  0  0
 13 22  1  0  0  0
 14 15  1  0  0  0
 14 31  1  0  0  0
 15 16  1  0  0  0
 16 17  2  0  0  0
 16 21  1  0  0  0
 17 18  1  0  0  0
 18 19  2  0  0  0
 19 20  1  0  0  0
 20 21  2  0  0  0
 22 23  2  0  0  0
 22 28  1  0  0  0
 23 24  1  0  0  0
 23 29  1  0  0  0
 24 25  2  0  0  0
 25 26  1  0  0  0
 26 27  1  0  0  0
 26 28  2  0  0  0
 29 30  2  0  0  0
M  END
>  <CHROM.0>
-178.53910253,-169.63341408,-8.28184547,63.91066844,-32.05881236,-175.55681915
-37.26919976,-158.11475682

>  <CHROM.1>
111.63132185,140.57379324,147.40296778,-124.97021321,54.71911536,-80.29334997
-22.32712348,20.28155232,-12.54285595,-0.68908690,0.13854730,1.01542413

>  <Name>
F1609-0781

>  <RI>
1.90201e+07

>  <Rbt.Current_Directory>
/home/adria/Escritorio/rDock_CMTR_LC/2pxcA_model/inputs_sah

>  <Rbt.Executable>
rbdock ($Id: //depot/dev/client3/rdock/2013.1/src/exe/rbdock.cxx#4 $)

>  <Rbt.Library>
libRbt.so (2013.1, Build901 2013/11/27)

>  <Rbt.Parameter_File>
/home/adria/Escritorio/rDock_2013.1_src/data/scripts/dock.prm

>  <Rbt.Receptor>
sah_rdock.prm

>  <SCORE>
-292.362

>  <SCORE.INTER>
-9.47953

>  <SCORE.INTER.CONST>
1

>  <SCORE.INTER.POLAR>
-1.09817

>  <SCORE.INTER.REPUL>
0.183209

>  <SCORE.INTER.ROT>
6

>  <SCORE.INTER.VDW>
-18.0618

>  <SCORE.INTER.norm>
-0.315984

>  <SCORE.INTRA>
-277.182

>  <SCORE.INTRA.DIHEDRAL>
9.52

>  <SCORE.INTRA.DIHEDRAL.0>
10.0435

>  <SCORE.INTRA.POLAR>
0

>  <SCORE.INTRA.POLAR.0>
0

>  <SCORE.INTRA.REPUL>
0

>  <SCORE.INTRA.REPUL.0>
0

>  <SCORE.INTRA.VDW>
-281.942

>  <SCORE.INTRA.VDW.0>
279.063

>  <SCORE.INTRA.norm>
-9.23941

>  <SCORE.RESTR>
0

>  <SCORE.RESTR.CAVITY>
0

>  <SCORE.RESTR.norm>
0

>  <SCORE.SYSTEM>
-5.70069

>  <SCORE.SYSTEM.CONST>
0

>  <SCORE.SYSTEM.DIHEDRAL>
9.09642

>  <SCORE.SYSTEM.POLAR>
-4.25473

>  <SCORE.SYSTEM.VDW>
4.21718

>  <SCORE.SYSTEM.norm>
-0.190023

>  <SCORE.heavy>
30

>  <SCORE.norm>
-9.74541

$$$$
F1609-0781
  rDOCK(R)          3D
libRbt.so/2013.1/901 2013/11/27
 31 34  0  0  0  0  0  0  0  0999 V2000
  -15.7495   15.4545  -18.2869 C   0  0  0  0  0  0
  -17.1735   15.4421  -18.3708 O   0  0  0  0  0  0
  -17.6805   16.3157  -17.4438 C   0  0  0  0  0  0
  -17.6191   18.0312  -17.7929 C   0  0  0  0  0  0
  -18.4275   19.1166  -16.6682 C   0  0  0  0  0  0
  -19.3005   18.4139  -14.9679 C   0  0  0  0  0  0
  -19.2662   16.6131  -14.7721 C   0  0  0  0  0  0
  -18.4731   15.6177  -16.0031 C   0  0  0  0  0  0
  -19.5403   19.1321  -13.1179 S   0  0  0  0  0  0
  -20.1349   18.1070  -12.2807 O   0  0  0  0  0  0
  -18.2006   19.5981  -12.7629 O   0  0  0  0  0  0
  -20.5645   20.6409  -13.0807 C   0  0  0  0  0  0
  -21.8338   20.8153  -12.4652 C   0  0  0  0  0  0
  -22.6294   19.8245  -11.8988 N   0  0  0  0  0  0
  -22.9209   19.5843  -10.5175 C   0  0  0  0  0  0
  -23.8584   20.5803   -9.9718 C   0  0  0  0  0  0
  -25.5474   20.3259  -10.4910 C   0  0  0  0  0  0
  -26.8756   21.2009   -9.8501 C   0  0  0  0  0  0
  -26.5517   22.4318   -8.6257 C   0  0  0  0  0  0
  -24.6415   22.8029   -8.0172 C   0  0  0  0  0  0
  -23.3540   21.7819   -8.7322 C   0  0  0  0  0  0
  -22.4444   22.1191  -12.5508 C   0  0  0  0  0  0
  -21.7421   23.1510  -13.2093 C   0  0  0  0  0  0
  -22.2648   24.4380  -13.2156 C   0  0  0  0  0  0
  -23.4872   24.7468  -12.6162 C   0  0  0  0  0  0
  -24.2290   23.7338  -12.0392 C   0  0  0  0  0  0
  -25.7531   24.0731  -11.3200 Cl  0  0  0  0  0  0
  -23.7284   22.4363  -12.0219 C   0  0  0  0  0  0
  -20.5822   22.9502  -13.8386 N   0  0  0  0  0  0
  -20.0205   21.7210  -13.7683 C   0  0  0  0  0  0
  -22.8777   19.0346  -12.4776 H   0  0  0  0  0  0
  1  2  1  0  0  0
  2  3  1  0  0  0
  3  4  2  0  0  0
  3  8  1  0  0  0
  4  5  1  0  0  0
  5  6  2  0  0  0
  6  7  1  0  0  0
  6  9  1  0  0  0
  7  8  2  0  0  0
  9 10  2  0  0  0
  9 11  2  0  0  0
  9 12  1  0  0  0
 12 13  2  0  0  0
 12 30  1  0  0  0
 13 14  1  0  0  0
 13 22  1  0  0  0
 14 15  1  0  0  0
 14 31  1  0  0  0
 15 16  1  0  0  0
 16 17  2  0  0  0
 16 21  1  0  0  0
 17 18  1  0  0  0
 18 19  2  0  0  0
 19 20  1  0  0  0
 20 21  2  0  0  0
 22 23  2  0  0  0
 22 28  1  0  0  0
 23 24  1  0  0  0
 23 29  1  0  0  0
 24 25  2  0  0  0
 25 26  1  0  0  0
 26 27  1  0  0  0
 26 28  2  0  0  0
 29 30  2  0  0  0
M  END
>  <CHROM.0>
-60.81829195,-73.34275770,-7.64029557,65.30293365,-30.94683668,-60.41625577
-157.01467532,-165.94717015

>  <CHROM.1>
77.07666094,-174.16943690,115.75430164,108.93669554,73.77537589,75.52423102
-21.54057363,20.42513643,-12.98273215,-0.29356438,0.82990452,-0.38012451

>  <Name>
F1609-0781

>  <RI>
1.90201e+07

>  <Rbt.Current_Directory>
/home/adria/Escritorio/rDock_CMTR_LC/2pxcA_model/inputs_sah

>  <Rbt.Executable>
rbdock ($Id: //depot/dev/client3/rdock/2013.1/src/exe/rbdock.cxx#4 $)

>  <Rbt.Library>
libRbt.so (2013.1, Build901 2013/11/27)

>  <Rbt.Parameter_File>
/home/adria/Escritorio/rDock_2013.1_src/data/scripts/dock.prm

>  <Rbt.Receptor>
sah_rdock.prm

>  <SCORE>
-298.044

>  <SCORE.INTER>
-12.9785

>  <SCORE.INTER.CONST>
1

>  <SCORE.INTER.POLAR>
-0.581077

>  <SCORE.INTER.REPUL>
0

>  <SCORE.INTER.ROT>
6

>  <SCORE.INTER.VDW>
-22.4028

>  <SCORE.INTER.norm>
-0.432616

>  <SCORE.INTRA>
-277.493

>  <SCORE.INTRA.DIHEDRAL>
9.85829

>  <SCORE.INTRA.DIHEDRAL.0>
10.0435

>  <SCORE.INTRA.POLAR>
0

>  <SCORE.INTRA.POLAR.0>
0

>  <SCORE.INTRA.REPUL>
0

>  <SCORE.INTRA.REPUL.0>
0

>  <SCORE.INTRA.VDW>
-282.422

>  <SCORE.INTRA.VDW.0>
279.063

>  <SCORE.INTRA.norm>
-9.24977

>  <SCORE.RESTR>
0.0125656

>  <SCORE.RESTR.CAVITY>
0.0125656

>  <SCORE.RESTR.norm>
0.000418852

>  <SCORE.SYSTEM>
-7.58501

>  <SCORE.SYSTEM.CONST>
0

>  <SCORE.SYSTEM.DIHEDRAL>
9.30103

>  <SCORE.SYSTEM.POLAR>
-4.66365

>  <SCORE.SYSTEM.REPUL>
0.0391419

>  <SCORE.SYSTEM.VDW>
3.42517

>  <SCORE.SYSTEM.norm>
-0.252834

>  <SCORE.heavy>
30

>  <SCORE.norm>
-9.9348

$$$$
F1609-0781
  rDOCK(R)          3D
libRbt.so/2013.1/901 2013/11/27
 31 34  0  0  0  0  0  0  0  0999 V2000
  -18.3524   14.0804  -19.9699 C   0  0  0  0  0  0
  -17.1573   14.5225  -19.3286 O   0  0  0  0  0  0
  -17.4909   15.3649  -18.2998 C   0  0  0  0  0  0
  -18.5188   14.7530  -17.0202 C   0  0  0  0  0  0
  -18.7914   15.7972  -15.6303 C   0  0  0  0  0  0
  -18.0347   17.6867  -15.5667 C   0  0  0  0  0  0
  -16.9969   18.1487  -16.9779 C   0  0  0  0  0  0
  -16.7464   16.9887  -18.2920 C   0  0  0  0  0  0
  -18.6625   19.4206  -14.7952 S   0  0  0  0  0  0
  -17.5368   20.1124  -14.1957 O   0  0  0  0  0  0
  -19.3274   20.0690  -15.9247 O   0  0  0  0  0  0
  -19.9879   19.1982  -13.5620 C   0  0  0  0  0  0
  -20.5832   20.1906  -12.7366 C   0  0  0  0  0  0
  -20.1674   21.5097  -12.5862 N   0  0  0  0  0  0
  -20.8631   22.7163  -12.9190 C   0  0  0  0  0  0
  -21.0080   23.6066  -11.7550 C   0  0  0  0  0  0
  -22.6814   23.7071  -11.1410 C   0  0  0  0  0  0
  -23.1067   24.4984   -9.6805 C   0  0  0  0  0  0
  -21.8231   25.2708   -8.7449 C   0  0  0  0  0  0
  -19.8960   25.2299   -9.4093 C   0  0  0  0  0  0
  -19.5839   24.3264  -10.9251 C   0  0  0  0  0  0
  -21.6393   19.7743  -11.8471 C   0  0  0  0  0  0
  -22.0424   18.4219  -11.8648 C   0  0  0  0  0  0
  -23.1240   18.0206  -11.0910 C   0  0  0  0  0  0
  -23.8155   18.9069  -10.2632 C   0  0  0  0  0  0
  -23.3836   20.2160  -10.1689 C   0  0  0  0  0  0
  -24.1923   21.3263   -9.1351 Cl  0  0  0  0  0  0
  -22.3015   20.6420  -10.9318 C   0  0  0  0  0  0
  -21.4262   17.4924  -12.5981 N   0  0  0  0  0  0
  -20.4255   17.8853  -13.4200 C   0  0  0  0  0  0
  -19.1841   21.6759  -12.4246 H   0  0  0  0  0  0
  1  2  1  0  0  0
  2  3  1  0  0  0
  3  4  2  0  0  0
  3  8  1  0  0  0
  4  5  1  0  0  0
  5  6  2  0  0  0
  6  7  1  0  0  0
  6  9  1  0  0  0
  7  8  2  0  0  0
  9 10  2  0  0  0
  9 11  2  0  0  0
  9 12  1  0  0  0
 12 13  2  0  0  0
 12 30  1  0  0  0
 13 14  1  0  0  0
 13 22  1  0  0  0
 14 15  1  0  0  0
 14 31  1  0  0  0
 15 16  1  0  0  0
 16 17  2  0  0  0
 16 21  1  0  0  0
 17 18  1  0  0  0
 18 19  2  0  0  0
 19 20  1  0  0  0
 20 21  2  0  0  0
 22 23  2  0  0  0
 22 28  1  0  0  0
 23 24  1  0  0  0
 23 29  1  0  0  0
 24 25  2  0  0  0
 25 26  1  0  0  0
 26 27  1  0  0  0
 26 28  2  0  0  0
 29 30  2  0  0  0
M  END
>  <CHROM.0>
-175.34482046,66.96830104,109.41473440,-62.04616669,-30.02734094,63.09136818
-36.52080804,-161.58445091

>  <CHROM.1>
59.21313133,139.55471638,174.07650336,116.72262076,123.14475860,-108.79540341
-20.38890301,19.70001628,-13.29560296,0.99922623,-0.70738447,-2.68255235

>  <Name>
F1609-0781

>  <RI>
1.90201e+07

>  <Rbt.Current_Directory>
/home/adria/Escritorio/rDock_CMTR_LC/2pxcA_model/inputs_sah

>  <Rbt.Executable>
rbdock ($Id: //depot/dev/client3/rdock/2013.1/src/exe/rbdock.cxx#4 $)

>  <Rbt.Library>
libRbt.so (2013.1, Build901 2013/11/27)

>  <Rbt.Parameter_File>
/home/adria/Escritorio/rDock_2013.1_src/data/scripts/dock.prm

>  <Rbt.Receptor>
sah_rdock.prm

>  <SCORE>
-301.213

>  <SCORE.INTER>
-16.7546

>  <SCORE.INTER.CONST>
1

>  <SCORE.INTER.POLAR>
-0.693057

>  <SCORE.INTER.REPUL>
0.0233803

>  <SCORE.INTER.ROT>
6

>  <SCORE.INTER.VDW>
-25.9151

>  <SCORE.INTER.norm>
-0.558487

>  <SCORE.INTRA>
-278.102

>  <SCORE.INTRA.DIHEDRAL>
7.71769

>  <SCORE.INTRA.DIHEDRAL.0>
10.0435

>  <SCORE.INTRA.POLAR>
0

>  <SCORE.INTRA.POLAR.0>
0

>  <SCORE.INTRA.REPUL>
0

>  <SCORE.INTRA.REPUL.0>
0

>  <SCORE.INTRA.VDW>
-281.961

>  <SCORE.INTRA.VDW.0>
279.063

>  <SCORE.INTRA.norm>
-9.27008

>  <SCORE.RESTR>
0

>  <SCORE.RESTR.CAVITY>
0

>  <SCORE.RESTR.norm>
0

>  <SCORE.SYSTEM>
-6.35594

>  <SCORE.SYSTEM.CONST>
0

>  <SCORE.SYSTEM.DIHEDRAL>
8.9895

>  <SCORE.SYSTEM.POLAR>
-4.27214

>  <SCORE.SYSTEM.VDW>
3.67458

>  <SCORE.SYSTEM.norm>
-0.211865

>  <SCORE.heavy>
30

>  <SCORE.norm>
-10.0404

$$$$
F1609-0781
  rDOCK(R)          3D
libRbt.so/2013.1/901 2013/11/27
 31 34  0  0  0  0  0  0  0  0999 V2000
  -25.2313   23.6015   -9.2881 C   0  0  0  0  0  0
  -24.1958   22.9531   -8.5518 O   0  0  0  0  0  0
  -23.3414   22.3410   -9.4320 C   0  0  0  0  0  0
  -22.3730   23.3462  -10.4905 C   0  0  0  0  0  0
  -21.1646   22.5447  -11.4874 C   0  0  0  0  0  0
  -20.9796   20.5167  -11.4937 C   0  0  0  0  0  0
  -22.0645   19.6408  -10.3371 C   0  0  0  0  0  0
  -23.2011   20.5626   -9.3402 C   0  0  0  0  0  0
  -20.4955   19.1598  -12.8794 S   0  0  0  0  0  0
  -19.2780   19.5753  -13.5503 O   0  0  0  0  0  0
  -20.4545   17.9087  -12.1236 O   0  0  0  0  0  0
  -21.8254   18.9025  -14.1009 C   0  0  0  0  0  0
  -21.8496   17.9748  -15.1775 C   0  0  0  0  0  0
  -20.7960   17.1800  -15.6177 N   0  0  0  0  0  0
  -19.4550   17.1067  -15.1207 C   0  0  0  0  0  0
  -18.4636   17.1148  -16.2097 C   0  0  0  0  0  0
  -17.2304   18.3943  -16.0386 C   0  0  0  0  0  0
  -15.8428   18.5100  -17.0393 C   0  0  0  0  0  0
  -15.6337   17.3104  -18.3186 C   0  0  0  0  0  0
  -17.0253   15.8465  -18.5963 C   0  0  0  0  0  0
  -18.4010   15.8124  -17.4484 C   0  0  0  0  0  0
  -23.0319   17.9396  -16.0027 C   0  0  0  0  0  0
  -24.1042   18.7993  -15.6821 C   0  0  0  0  0  0
  -25.2899   18.7108  -16.4004 C   0  0  0  0  0  0
  -25.4525   17.8160  -17.4595 C   0  0  0  0  0  0
  -24.3862   17.0248  -17.8420 C   0  0  0  0  0  0
  -24.5416   15.9346  -19.1622 Cl  0  0  0  0  0  0
  -23.1875   17.0964  -17.1402 C   0  0  0  0  0  0
  -24.0359   19.7098  -14.7086 N   0  0  0  0  0  0
  -22.9183   19.7493  -13.9466 C   0  0  0  0  0  0
  -20.8842   16.7450  -16.5253 H   0  0  0  0  0  0
  1  2  1  0  0  0
  2  3  1  0  0  0
  3  4  2  0  0  0
  3  8  1  0  0  0
  4  5  1  0  0  0
  5  6  2  0  0  0
  6  7  1  0  0  0
  6  9  1  0  0  0
  7  8  2  0  0  0
  9 10  2  0  0  0
  9 11  2  0  0  0
  9 12  1  0  0  0
 12 13  2  0  0  0
 12 30  1  0  0  0
 13 14  1  0  0  0
 13 22  1  0  0  0
 14 15  1  0  0  0
 14 31  1  0  0  0
 15 16  1  0  0  0
 16 17  2  0  0  0
 16 21  1  0  0  0
 17 18  1  0  0  0
 18 19  2  0  0  0
 19 20  1  0  0  0
 20 21  2  0  0  0
 22 23  2  0  0  0
 22 28  1  0  0  0
 23 24  1  0  0  0
 23 29  1  0  0  0
 24 25  2  0  0  0
 25 26  1  0  0  0
 26 27  1  0  0  0
 26 28  2  0  0  0
 29 30  2  0  0  0
M  END
>  <CHROM.0>
-60.71926895,-79.16319530,74.14373387,-60.52606407,168.54493068,60.96252724
-36.51160029,-168.27546026

>  <CHROM.1>
66.94496141,49.46132902,-176.77623809,-0.66781389,-134.52119455,125.55030225
-21.64649067,18.85870642,-14.47120997,1.87259285,-0.06928551,0.99480857

>  <Name>
F1609-0781

>  <RI>
1.90201e+07

>  <Rbt.Current_Directory>
/home/adria/Escritorio/rDock_CMTR_LC/2pxcA_model/inputs_sah

>  <Rbt.Executable>
rbdock ($Id: //depot/dev/client3/rdock/2013.1/src/exe/rbdock.cxx#4 $)

>  <Rbt.Library>
libRbt.so (2013.1, Build901 2013/11/27)

>  <Rbt.Parameter_File>
/home/adria/Escritorio/rDock_2013.1_src/data/scripts/dock.prm

>  <Rbt.Receptor>
sah_rdock.prm

>  <SCORE>
-294.447

>  <SCORE.INTER>
-10.248

>  <SCORE.INTER.CONST>
1

>  <SCORE.INTER.POLAR>
-0.97236

>  <SCORE.INTER.REPUL>
0

>  <SCORE.INTER.ROT>
6

>  <SCORE.INTER.VDW>
-18.342

>  <SCORE.INTER.norm>
-0.341599

>  <SCORE.INTRA>
-281.613

>  <SCORE.INTRA.DIHEDRAL>
-1.8459

>  <SCORE.INTRA.DIHEDRAL.0>
10.0435

>  <SCORE.INTRA.POLAR>
0

>  <SCORE.INTRA.POLAR.0>
0

>  <SCORE.INTRA.REPUL>
0

>  <SCORE.INTRA.REPUL.0>
0

>  <SCORE.INTRA.VDW>
-280.69

>  <SCORE.INTRA.VDW.0>
279.063

>  <SCORE.INTRA.norm>
-9.38709

>  <SCORE.RESTR>
0.00379477

>  <SCORE.RESTR.CAVITY>
0.00379477

>  <SCORE.RESTR.norm>
0.000126492

>  <SCORE.SYSTEM>
-2.58998

>  <SCORE.SYSTEM.CONST>
0

>  <SCORE.SYSTEM.DIHEDRAL>
4.16746

>  <SCORE.SYSTEM.POLAR>
-4.06173

>  <SCORE.SYSTEM.REPUL>
0.0476362

>  <SCORE.SYSTEM.VDW>
8.89799

>  <SCORE.SYSTEM.norm>
-0.0863326

>  <SCORE.heavy>
30

>  <SCORE.norm>
-9.81489

$$$$
F1609-0781
  rDOCK(R)          3D
libRbt.so/2013.1/901 2013/11/27
 31 34  0  0  0  0  0  0  0  0999 V2000
  -16.9216   12.5003  -18.5506 C   0  0  0  0  0  0
  -17.7727   12.7920  -17.4435 O   0  0  0  0  0  0
  -17.5939   14.1014  -17.0789 C   0  0  0  0  0  0
  -16.0077   14.6066  -16.5335 C   0  0  0  0  0  0
  -15.7619   16.3233  -16.2354 C   0  0  0  0  0  0
  -17.2945   17.6533  -16.4072 C   0  0  0  0  0  0
  -18.8630   16.9511  -16.9807 C   0  0  0  0  0  0
  -18.9728   15.2141  -17.3061 C   0  0  0  0  0  0
  -17.7973   19.3395  -15.4587 S   0  0  0  0  0  0
  -16.6163   19.9081  -14.8364 O   0  0  0  0  0  0
  -18.4547   20.1271  -16.5007 O   0  0  0  0  0  0
  -19.0980   19.0768  -14.2073 C   0  0  0  0  0  0
  -19.7870   20.0621  -13.4492 C   0  0  0  0  0  0
  -19.4995   21.4221  -13.3914 N   0  0  0  0  0  0
  -20.2353   22.5218  -13.9389 C   0  0  0  0  0  0
  -20.9145   23.3045  -12.8927 C   0  0  0  0  0  0
  -22.6950   23.2603  -13.0150 C   0  0  0  0  0  0
  -23.7412   23.9045  -11.8189 C   0  0  0  0  0  0
  -23.0175   24.6690  -10.4008 C   0  0  0  0  0  0
  -20.9907   24.7910  -10.2172 C   0  0  0  0  0  0
  -20.0157   24.0332  -11.5158 C   0  0  0  0  0  0
  -20.8004   19.6089  -12.5285 C   0  0  0  0  0  0
  -21.0724   18.2262  -12.4517 C   0  0  0  0  0  0
  -22.1124   17.7775  -11.6475 C   0  0  0  0  0  0
  -22.8871   18.6485  -10.8793 C   0  0  0  0  0  0
  -22.5824   19.9962  -10.8768 C   0  0  0  0  0  0
  -23.4957   21.0926   -9.9179 Cl  0  0  0  0  0  0
  -21.5444   20.4702  -11.6719 C   0  0  0  0  0  0
  -20.3687   17.3116  -13.1224 N   0  0  0  0  0  0
  -19.4084   17.7410  -13.9738 C   0  0  0  0  0  0
  -18.5632   21.6925  -13.1252 H   0  0  0  0  0  0
  1  2  1  0  0  0
  2  3  1  0  0  0
  3  4  2  0  0  0
  3  8  1  0  0  0
  4  5  1  0  0  0
  5  6  2  0  0  0
  6  7  1  0  0  0
  6  9  1  0  0  0
  7  8  2  0  0  0
  9 10  2  0  0  0
  9 11  2  0  0  0
  9 12  1  0  0  0
 12 13  2  0  0  0
 12 30  1  0  0  0
 13 14  1  0  0  0
 13 22  1  0  0  0
 14 15  1  0  0  0
 14 31  1  0  0  0
 15 16  1  0  0  0
 16 17  2  0  0  0
 16 21  1  0  0  0
 17 18  1  0  0  0
 18 19  2  0  0  0
 19 20  1  0  0  0
 20 21  2  0  0  0
 22 23  2  0  0  0
 22 28  1  0  0  0
 23 24  1  0  0  0
 23 29  1  0  0  0
 24 25  2  0  0  0
 25 26  1  0  0  0
 26 27  1  0  0  0
 26 28  2  0  0  0
 29 30  2  0  0  0
M  END
>  <CHROM.0>
-62.76757919,-167.76333837,110.74840786,66.98155560,-29.62380779,-52.32870869
-35.44817396,-160.17472130

>  <CHROM.1>
-61.73622986,22.36997303,-173.04338549,108.80271217,107.67094476,-115.84258807
-19.91021431,19.29986672,-13.78000901,0.90364432,-0.71928096,-2.95333519

>  <Name>
F1609-0781

>  <RI>
1.90201e+07

>  <Rbt.Current_Directory>
/home/adria/Escritorio/rDock_CMTR_LC/2pxcA_model/inputs_sah

>  <Rbt.Executable>
rbdock ($Id: //depot/dev/client3/rdock/2013.1/src/exe/rbdock.cxx#4 $)

>  <Rbt.Library>
libRbt.so (2013.1, Build901 2013/11/27)

>  <Rbt.Parameter_File>
/home/adria/Escritorio/rDock_2013.1_src/data/scripts/dock.prm

>  <Rbt.Receptor>
sah_rdock.prm

>  <SCORE>
-296.605

>  <SCORE.INTER>
-12.1674

>  <SCORE.INTER.CONST>
1

>  <SCORE.INTER.POLAR>
-1.15635

>  <SCORE.INTER.REPUL>
0.252287

>  <SCORE.INTER.ROT>
6

>  <SCORE.INTER.VDW>
-20.8973

>  <SCORE.INTER.norm>
-0.405581

>  <SCORE.INTRA>
-278.438

>  <SCORE.INTRA.DIHEDRAL>
8.8068

>  <SCORE.INTRA.DIHEDRAL.0>
10.0435

>  <SCORE.INTRA.POLAR>
0

>  <SCORE.INTRA.POLAR.0>
0

>  <SCORE.INTRA.REPUL>
0

>  <SCORE.INTRA.REPUL.0>
0

>  <SCORE.INTRA.VDW>
-282.841

>  <SCORE.INTRA.VDW.0>
279.063

>  <SCORE.INTRA.norm>
-9.28126

>  <SCORE.RESTR>
0

>  <SCORE.RESTR.CAVITY>
0

>  <SCORE.RESTR.norm>
0

>  <SCORE.SYSTEM>
-6.00006

>  <SCORE.SYSTEM.CONST>
0

>  <SCORE.SYSTEM.DIHEDRAL>
10.0427

>  <SCORE.SYSTEM.POLAR>
-4.33086

>  <SCORE.SYSTEM.VDW>
3.70353

>  <SCORE.SYSTEM.norm>
-0.200002

>  <SCORE.heavy>
30

>  <SCORE.norm>
-9.88684

$$$$
F1609-0781
  rDOCK(R)          3D
libRbt.so/2013.1/901 2013/11/27
 31 34  0  0  0  0  0  0  0  0999 V2000
  -14.8775   16.0587  -18.5619 C   0  0  0  0  0  0
  -14.5545   16.2719  -17.1889 O   0  0  0  0  0  0
  -15.3443   17.2793  -16.6981 C   0  0  0  0  0  0
  -14.7688   18.9288  -16.8272 C   0  0  0  0  0  0
  -15.8726   20.2122  -16.3464 C   0  0  0  0  0  0
  -17.7039   19.7892  -15.5625 C   0  0  0  0  0  0
  -18.1285   18.0290  -15.5036 C   0  0  0  0  0  0
  -16.9561   16.8303  -16.0725 C   0  0  0  0  0  0
  -18.8700   20.6503  -14.1861 S   0  0  0  0  0  0
  -18.2915   20.4423  -12.8719 O   0  0  0  0  0  0
  -18.9866   22.0286  -14.6602 O   0  0  0  0  0  0
  -20.5802   20.0171  -14.2233 C   0  0  0  0  0  0
  -21.4934   19.9150  -13.1389 C   0  0  0  0  0  0
  -21.2170   20.1302  -11.7925 N   0  0  0  0  0  0
  -21.8754   21.0017  -10.8664 C   0  0  0  0  0  0
  -22.0490   22.3573  -11.4150 C   0  0  0  0  0  0
  -23.4640   22.5122  -12.4925 C   0  0  0  0  0  0
  -24.0270   24.0119  -13.1042 C   0  0  0  0  0  0
  -23.1480   25.4779  -12.6594 C   0  0  0  0  0  0
  -21.4986   25.3687  -11.4660 C   0  0  0  0  0  0
  -21.0495   23.7444  -10.8567 C   0  0  0  0  0  0
  -22.8104   19.3991  -13.4207 C   0  0  0  0  0  0
  -23.1292   19.0542  -14.7515 C   0  0  0  0  0  0
  -24.4218   18.6516  -15.0626 C   0  0  0  0  0  0
  -25.4204   18.5434  -14.0930 C   0  0  0  0  0  0
  -25.1058   18.7963  -12.7715 C   0  0  0  0  0  0
  -26.3031   18.6420  -11.5476 Cl  0  0  0  0  0  0
  -23.8180   19.1989  -12.4339 C   0  0  0  0  0  0
  -22.2370   19.0942  -15.7434 N   0  0  0  0  0  0
  -20.9978   19.5647  -15.4708 C   0  0  0  0  0  0
  -20.3239   19.8148  -11.4409 H   0  0  0  0  0  0
  1  2  1  0  0  0
  2  3  1  0  0  0
  3  4  2  0  0  0
  3  8  1  0  0  0
  4  5  1  0  0  0
  5  6  2  0  0  0
  6  7  1  0  0  0
  6  9  1  0  0  0
  7  8  2  0  0  0
  9 10  2  0  0  0
  9 11  2  0  0  0
  9 12  1  0  0  0
 12 13  2  0  0  0
 12 30  1  0  0  0
 13 14  1  0  0  0
 13 22  1  0  0  0
 14 15  1  0  0  0
 14 31  1  0  0  0
 15 16  1  0  0  0
 16 17  2  0  0  0
 16 21  1  0  0  0
 17 18  1  0  0  0
 18 19  2  0  0  0
 19 20  1  0  0  0
 20 21  2  0  0  0
 22 23  2  0  0  0
 22 28  1  0  0  0
 23 24  1  0  0  0
 23 29  1  0  0  0
 24 25  2  0  0  0
 25 26  1  0  0  0
 26 27  1  0  0  0
 26 28  2  0  0  0
 29 30  2  0  0  0
M  END
>  <CHROM.0>
-62.93801811,-167.38380092,-47.71453827,-58.57595407,167.79980032,-62.08397049
-36.09683561,-156.96331436

>  <CHROM.1>
-89.30464468,-71.78019574,150.30910539,126.26809899,-48.67760506,81.77469360
-20.75163636,19.99943714,-13.96115525,0.48859338,-0.31735239,-2.71311859

>  <Name>
F1609-0781

>  <RI>
1.90201e+07

>  <Rbt.Current_Directory>
/home/adria/Escritorio/rDock_CMTR_LC/2pxcA_model/inputs_sah

>  <Rbt.Executable>
rbdock ($Id: //depot/dev/client3/rdock/2013.1/src/exe/rbdock.cxx#4 $)

>  <Rbt.Library>
libRbt.so (2013.1, Build901 2013/11/27)

>  <Rbt.Parameter_File>
/home/adria/Escritorio/rDock_2013.1_src/data/scripts/dock.prm

>  <Rbt.Receptor>
sah_rdock.prm

>  <SCORE>
-292.473

>  <SCORE.INTER>
-12.1391

>  <SCORE.INTER.CONST>
1

>  <SCORE.INTER.POLAR>
-0.499805

>  <SCORE.INTER.REPUL>
0.003803

>  <SCORE.INTER.ROT>
6

>  <SCORE.INTER.VDW>
-21.8588

>  <SCORE.INTER.norm>
-0.404636

>  <SCORE.INTRA>
-279.144

>  <SCORE.INTRA.DIHEDRAL>
6.57455

>  <SCORE.INTRA.DIHEDRAL.0>
10.0435

>  <SCORE.INTRA.POLAR>
0

>  <SCORE.INTRA.POLAR.0>
0

>  <SCORE.INTRA.REPUL>
0

>  <SCORE.INTRA.REPUL.0>
0

>  <SCORE.INTRA.VDW>
-282.432

>  <SCORE.INTRA.VDW.0>
279.063

>  <SCORE.INTRA.norm>
-9.30481

>  <SCORE.RESTR>
0

>  <SCORE.RESTR.CAVITY>
0

>  <SCORE.RESTR.norm>
0

>  <SCORE.SYSTEM>
-1.18951

>  <SCORE.SYSTEM.CONST>
0

>  <SCORE.SYSTEM.DIHEDRAL>
3.86056

>  <SCORE.SYSTEM.POLAR>
-3.62662

>  <SCORE.SYSTEM.VDW>
9.21071

>  <SCORE.SYSTEM.norm>
-0.0396505

>  <SCORE.heavy>
30

>  <SCORE.norm>
-9.7491

$$$$
F1609-0781
  rDOCK(R)          3D
libRbt.so/2013.1/901 2013/11/27
 31 34  0  0  0  0  0  0  0  0999 V2000
  -18.0809   12.0483  -17.4106 C   0  0  0  0  0  0
  -17.3101   12.8120  -16.4846 O   0  0  0  0  0  0
  -17.3660   14.1337  -16.8440 C   0  0  0  0  0  0
  -16.1762   14.7415  -17.9770 C   0  0  0  0  0  0
  -16.3732   16.3931  -18.5511 C   0  0  0  0  0  0
  -17.8602   17.5872  -17.8371 C   0  0  0  0  0  0
  -18.9953   16.7902  -16.6715 C   0  0  0  0  0  0
  -18.7292   15.1006  -16.2133 C   0  0  0  0  0  0
  -18.0279   19.5446  -17.4678 S   0  0  0  0  0  0
  -16.7099   20.1506  -17.4950 O   0  0  0  0  0  0
  -18.9960   19.9928  -18.4678 O   0  0  0  0  0  0
  -18.8407   19.8879  -15.8714 C   0  0  0  0  0  0
  -20.2170   19.7428  -15.5473 C   0  0  0  0  0  0
  -21.2559   19.4592  -16.4281 N   0  0  0  0  0  0
  -22.0519   18.2731  -16.5292 C   0  0  0  0  0  0
  -23.2555   18.3446  -15.6837 C   0  0  0  0  0  0
  -24.5594   19.3412  -16.3863 C   0  0  0  0  0  0
  -26.1393   19.4333  -15.7262 C   0  0  0  0  0  0
  -26.4880   18.5077  -14.2630 C   0  0  0  0  0  0
  -25.0332   17.3813  -13.3847 C   0  0  0  0  0  0
  -23.4415   17.3354  -14.2067 C   0  0  0  0  0  0
  -20.6229   20.0572  -14.1996 C   0  0  0  0  0  0
  -19.6361   20.4598  -13.2744 C   0  0  0  0  0  0
  -19.9882   20.6695  -11.9472 C   0  0  0  0  0  0
  -21.3011   20.5263  -11.4947 C   0  0  0  0  0  0
  -22.2954   20.2142  -12.4019 C   0  0  0  0  0  0
  -23.9278   20.0613  -11.8848 Cl  0  0  0  0  0  0
  -21.9690   20.0015  -13.7370 C   0  0  0  0  0  0
  -18.3604   20.6544  -13.6154 N   0  0  0  0  0  0
  -17.9874   20.3726  -14.8853 C   0  0  0  0  0  0
  -21.3516   20.0461  -17.2448 H   0  0  0  0  0  0
  1  2  1  0  0  0
  2  3  1  0  0  0
  3  4  2  0  0  0
  3  8  1  0  0  0
  4  5  1  0  0  0
  5  6  2  0  0  0
  6  7  1  0  0  0
  6  9  1  0  0  0
  7  8  2  0  0  0
  9 10  2  0  0  0
  9 11  2  0  0  0
  9 12  1  0  0  0
 12 13  2  0  0  0
 12 30  1  0  0  0
 13 14  1  0  0  0
 13 22  1  0  0  0
 14 15  1  0  0  0
 14 31  1  0  0  0
 15 16  1  0  0  0
 16 17  2  0  0  0
 16 21  1  0  0  0
 17 18  1  0  0  0
 18 19  2  0  0  0
 19 20  1  0  0  0
 20 21  2  0  0  0
 22 23  2  0  0  0
 22 28  1  0  0  0
 23 24  1  0  0  0
 23 29  1  0  0  0
 24 25  2  0  0  0
 25 26  1  0  0  0
 26 27  1  0  0  0
 26 28  2  0  0  0
 29 30  2  0  0  0
M  END
>  <CHROM.0>
-173.72719217,-76.00861964,74.46403434,147.53271362,-30.01318854,-177.56632816
-157.44632842,-161.53359871

>  <CHROM.1>
-88.52661933,-13.45922127,-73.19382143,111.66680518,90.17416611,77.97012417
-20.42148630,18.43488508,-15.39666044,0.62419769,-0.37729033,-2.78284427

>  <Name>
F1609-0781

>  <RI>
1.90201e+07

>  <Rbt.Current_Directory>
/home/adria/Escritorio/rDock_CMTR_LC/2pxcA_model/inputs_sah

>  <Rbt.Executable>
rbdock ($Id: //depot/dev/client3/rdock/2013.1/src/exe/rbdock.cxx#4 $)

>  <Rbt.Library>
libRbt.so (2013.1, Build901 2013/11/27)

>  <Rbt.Parameter_File>
/home/adria/Escritorio/rDock_2013.1_src/data/scripts/dock.prm

>  <Rbt.Receptor>
sah_rdock.prm

>  <SCORE>
-293.396

>  <SCORE.INTER>
-11.4183

>  <SCORE.INTER.CONST>
1

>  <SCORE.INTER.POLAR>
-1.38152

>  <SCORE.INTER.REPUL>
0.00420158

>  <SCORE.INTER.ROT>
6

>  <SCORE.INTER.VDW>
-18.1422

>  <SCORE.INTER.norm>
-0.380612

>  <SCORE.INTRA>
-277.795

>  <SCORE.INTRA.DIHEDRAL>
10.3048

>  <SCORE.INTRA.DIHEDRAL.0>
10.0435

>  <SCORE.INTRA.POLAR>
0

>  <SCORE.INTRA.POLAR.0>
0

>  <SCORE.INTRA.REPUL>
0

>  <SCORE.INTRA.REPUL.0>
0

>  <SCORE.INTRA.VDW>
-282.947

>  <SCORE.INTRA.VDW.0>
279.063

>  <SCORE.INTRA.norm>
-9.25982

>  <SCORE.RESTR>
0

>  <SCORE.RESTR.CAVITY>
0

>  <SCORE.RESTR.norm>
0

>  <SCORE.SYSTEM>
-4.18297

>  <SCORE.SYSTEM.CONST>
0

>  <SCORE.SYSTEM.DIHEDRAL>
11.1503

>  <SCORE.SYSTEM.POLAR>
-4.15564

>  <SCORE.SYSTEM.REPUL>
0.0434599

>  <SCORE.SYSTEM.VDW>
4.15374

>  <SCORE.SYSTEM.norm>
-0.139432

>  <SCORE.heavy>
30

>  <SCORE.norm>
-9.77986

$$$$
F1609-0781
  rDOCK(R)          3D
libRbt.so/2013.1/901 2013/11/27
 31 34  0  0  0  0  0  0  0  0999 V2000
  -14.7433   15.4595  -18.4465 C   0  0  0  0  0  0
  -14.8554   16.8636  -18.6721 O   0  0  0  0  0  0
  -15.7853   17.3795  -17.8068 C   0  0  0  0  0  0
  -15.3343   18.7550  -16.8202 C   0  0  0  0  0  0
  -16.5952   19.5020  -15.8463 C   0  0  0  0  0  0
  -18.4768   18.7257  -15.7818 C   0  0  0  0  0  0
  -18.7602   17.3021  -16.8660 C   0  0  0  0  0  0
  -17.4261   16.6745  -17.8466 C   0  0  0  0  0  0
  -19.8889   18.5938  -14.3732 S   0  0  0  0  0  0
  -21.0662   17.9585  -14.9348 O   0  0  0  0  0  0
  -19.2079   17.9026  -13.2793 O   0  0  0  0  0  0
  -20.3304   20.2184  -13.6713 C   0  0  0  0  0  0
  -21.1117   20.4822  -12.5136 C   0  0  0  0  0  0
  -21.8339   19.5574  -11.7661 N   0  0  0  0  0  0
  -22.1018   19.5494  -10.3594 C   0  0  0  0  0  0
  -23.4987   19.9099  -10.0634 C   0  0  0  0  0  0
  -23.6844   20.8645   -8.5663 C   0  0  0  0  0  0
  -25.1601   21.5947   -8.0875 C   0  0  0  0  0  0
  -26.5749   21.3737   -9.1214 C   0  0  0  0  0  0
  -26.4435   20.2605  -10.8243 C   0  0  0  0  0  0
  -24.8298   19.5960  -11.2315 C   0  0  0  0  0  0
  -21.3071   21.8612  -12.1393 C   0  0  0  0  0  0
  -20.6928   22.8652  -12.9181 C   0  0  0  0  0  0
  -20.7836   24.1923  -12.5181 C   0  0  0  0  0  0
  -21.4937   24.5788  -11.3799 C   0  0  0  0  0  0
  -22.1714   23.6200  -10.6515 C   0  0  0  0  0  0
  -23.0816   24.0651   -9.2627 Cl  0  0  0  0  0  0
  -22.0979   22.2844  -11.0327 C   0  0  0  0  0  0
  -20.0188   22.6006  -14.0394 N   0  0  0  0  0  0
  -19.8511   21.3057  -14.3948 C   0  0  0  0  0  0
  -22.0292   18.6616  -12.1904 H   0  0  0  0  0  0
  1  2  1  0  0  0
  2  3  1  0  0  0
  3  4  2  0  0  0
  3  8  1  0  0  0
  4  5  1  0  0  0
  5  6  2  0  0  0
  6  7  1  0  0  0
  6  9  1  0  0  0
  7  8  2  0  0  0
  9 10  2  0  0  0
  9 11  2  0  0  0
  9 12  1  0  0  0
 12 13  2  0  0  0
 12 30  1  0  0  0
 13 14  1  0  0  0
 13 22  1  0  0  0
 14 15  1  0  0  0
 14 31  1  0  0  0
 15 16  1  0  0  0
 16 17  2  0  0  0
 16 21  1  0  0  0
 17 18  1  0  0  0
 18 19  2  0  0  0
 19 20  1  0  0  0
 20 21  2  0  0  0
 22 23  2  0  0  0
 22 28  1  0  0  0
 23 24  1  0  0  0
 23 29  1  0  0  0
 24 25  2  0  0  0
 25 26  1  0  0  0
 26 27  1  0  0  0
 26 28  2  0  0  0
 29 30  2  0  0  0
M  END
>  <CHROM.0>
177.52243639,-72.73166570,72.83983529,60.93295306,168.16743848,-177.58821188
-159.78437077,-164.18908727

>  <CHROM.1>
127.74587275,178.15786001,-168.33601881,147.50551814,106.33029277,-144.35901886
-20.67106464,20.24053186,-13.08988958,0.66079392,-0.63450081,-2.80039934

>  <Name>
F1609-0781

>  <RI>
1.90201e+07

>  <Rbt.Current_Directory>
/home/adria/Escritorio/rDock_CMTR_LC/2pxcA_model/inputs_sah

>  <Rbt.Executable>
rbdock ($Id: //depot/dev/client3/rdock/2013.1/src/exe/rbdock.cxx#4 $)

>  <Rbt.Library>
libRbt.so (2013.1, Build901 2013/11/27)

>  <Rbt.Parameter_File>
/home/adria/Escritorio/rDock_2013.1_src/data/scripts/dock.prm

>  <Rbt.Receptor>
sah_rdock.prm

>  <SCORE>
-296.633

>  <SCORE.INTER>
-14.2381

>  <SCORE.INTER.CONST>
1

>  <SCORE.INTER.POLAR>
-0.824621

>  <SCORE.INTER.REPUL>
0

>  <SCORE.INTER.ROT>
6

>  <SCORE.INTER.VDW>
-22.8344

>  <SCORE.INTER.norm>
-0.474605

>  <SCORE.INTRA>
-279.81

>  <SCORE.INTRA.DIHEDRAL>
0.115199

>  <SCORE.INTRA.DIHEDRAL.0>
10.0435

>  <SCORE.INTRA.POLAR>
0

>  <SCORE.INTRA.POLAR.0>
0

>  <SCORE.INTRA.REPUL>
0

>  <SCORE.INTRA.REPUL.0>
0

>  <SCORE.INTRA.VDW>
-279.867

>  <SCORE.INTRA.VDW.0>
279.063

>  <SCORE.INTRA.norm>
-9.32699

>  <SCORE.RESTR>
0

>  <SCORE.RESTR.CAVITY>
0

>  <SCORE.RESTR.norm>
0

>  <SCORE.SYSTEM>
-2.5855

>  <SCORE.SYSTEM.CONST>
0

>  <SCORE.SYSTEM.DIHEDRAL>
3.15465

>  <SCORE.SYSTEM.POLAR>
-3.91446

>  <SCORE.SYSTEM.REPUL>
0.0380528

>  <SCORE.SYSTEM.VDW>
8.95606

>  <SCORE.SYSTEM.norm>
-0.0861833

>  <SCORE.heavy>
30

>  <SCORE.norm>
-9.88778

$$$$
F1609-0781
  rDOCK(R)          3D
libRbt.so/2013.1/901 2013/11/27
 31 34  0  0  0  0  0  0  0  0999 V2000
  -24.5952   15.9298  -18.7497 C   0  0  0  0  0  0
  -23.3420   16.5232  -18.4145 O   0  0  0  0  0  0
  -23.5221   17.3713  -17.3526 C   0  0  0  0  0  0
  -22.5818   17.1006  -15.8996 C   0  0  0  0  0  0
  -22.7063   18.3003  -14.6184 C   0  0  0  0  0  0
  -23.9818   19.8802  -14.7736 C   0  0  0  0  0  0
  -24.8738   19.9983  -16.3461 C   0  0  0  0  0  0
  -24.6208   18.7603  -17.5865 C   0  0  0  0  0  0
  -25.0854   20.9212  -13.4720 S   0  0  0  0  0  0
  -26.3148   21.3422  -14.1173 O   0  0  0  0  0  0
  -25.2003   20.0153  -12.3300 O   0  0  0  0  0  0
  -24.2005   22.3710  -12.8073 C   0  0  0  0  0  0
  -23.0063   22.3828  -12.0366 C   0  0  0  0  0  0
  -22.3517   21.2807  -11.4957 N   0  0  0  0  0  0
  -20.9459   21.0516  -11.3482 C   0  0  0  0  0  0
  -20.3138   20.6716  -12.6229 C   0  0  0  0  0  0
  -20.1912   22.0208  -13.7855 C   0  0  0  0  0  0
  -19.3201   21.9229  -15.2592 C   0  0  0  0  0  0
  -18.5182   20.3999  -15.6554 C   0  0  0  0  0  0
  -18.6523   18.8053  -14.3921 C   0  0  0  0  0  0
  -19.5520   19.0602  -12.8634 C   0  0  0  0  0  0
  -22.4786   23.6655  -11.6413 C   0  0  0  0  0  0
  -23.1535   24.8313  -12.0623 C   0  0  0  0  0  0
  -22.6080   26.0770  -11.7793 C   0  0  0  0  0  0
  -21.4210   26.2226  -11.0590 C   0  0  0  0  0  0
  -20.7899   25.0963  -10.5667 C   0  0  0  0  0  0
  -19.3436   25.2409   -9.6487 Cl  0  0  0  0  0  0
  -21.3174   23.8375  -10.8345 C   0  0  0  0  0  0
  -24.3096   24.7979  -12.7284 N   0  0  0  0  0  0
  -24.8087   23.5913  -13.0839 C   0  0  0  0  0  0
  -22.8850   20.4311  -11.3753 H   0  0  0  0  0  0
  1  2  1  0  0  0
  2  3  1  0  0  0
  3  4  2  0  0  0
  3  8  1  0  0  0
  4  5  1  0  0  0
  5  6  2  0  0  0
  6  7  1  0  0  0
  6  9  1  0  0  0
  7  8  2  0  0  0
  9 10  2  0  0  0
  9 11  2  0  0  0
  9 12  1  0  0  0
 12 13  2  0  0  0
 12 30  1  0  0  0
 13 14  1  0  0  0
 13 22  1  0  0  0
 14 15  1  0  0  0
 14 31  1  0  0  0
 15 16  1  0  0  0
 16 17  2  0  0  0
 16 21  1  0  0  0
 17 18  1  0  0  0
 18 19  2  0  0  0
 19 20  1  0  0  0
 20 21  2  0  0  0
 22 23  2  0  0  0
 22 28  1  0  0  0
 23 24  1  0  0  0
 23 29  1  0  0  0
 24 25  2  0  0  0
 25 26  1  0  0  0
 26 27  1  0  0  0
 26 28  2  0  0  0
 29 30  2  0  0  0
M  END
>  <CHROM.0>
-58.50963374,-75.93009272,-8.48961848,154.82825716,-31.95709092,173.75035788
-158.20694413,-162.21505717

>  <CHROM.1>
122.57654866,-146.03903956,-62.16660912,143.83050240,-76.77761724,71.55599796
-22.48165296,21.42516394,-13.47757037,1.84939323,0.14009816,-2.47491564

>  <Name>
F1609-0781

>  <RI>
1.90201e+07

>  <Rbt.Current_Directory>
/home/adria/Escritorio/rDock_CMTR_LC/2pxcA_model/inputs_sah

>  <Rbt.Executable>
rbdock ($Id: //depot/dev/client3/rdock/2013.1/src/exe/rbdock.cxx#4 $)

>  <Rbt.Library>
libRbt.so (2013.1, Build901 2013/11/27)

>  <Rbt.Parameter_File>
/home/adria/Escritorio/rDock_2013.1_src/data/scripts/dock.prm

>  <Rbt.Receptor>
sah_rdock.prm

>  <SCORE>
-293.615

>  <SCORE.INTER>
-10.8431

>  <SCORE.INTER.CONST>
1

>  <SCORE.INTER.POLAR>
0

>  <SCORE.INTER.REPUL>
0

>  <SCORE.INTER.ROT>
6

>  <SCORE.INTER.VDW>
-22.2431

>  <SCORE.INTER.norm>
-0.361437

>  <SCORE.INTRA>
-278.691

>  <SCORE.INTRA.DIHEDRAL>
4.27181

>  <SCORE.INTRA.DIHEDRAL.0>
10.0435

>  <SCORE.INTRA.POLAR>
0

>  <SCORE.INTRA.POLAR.0>
0

>  <SCORE.INTRA.REPUL>
0

>  <SCORE.INTRA.REPUL.0>
0

>  <SCORE.INTRA.VDW>
-280.827

>  <SCORE.INTRA.VDW.0>
279.063

>  <SCORE.INTRA.norm>
-9.28971

>  <SCORE.RESTR>
0.0575264

>  <SCORE.RESTR.CAVITY>
0.0575264

>  <SCORE.RESTR.norm>
0.00191755

>  <SCORE.SYSTEM>
-4.13854

>  <SCORE.SYSTEM.CONST>
0

>  <SCORE.SYSTEM.DIHEDRAL>
12.1419

>  <SCORE.SYSTEM.POLAR>
-4.68122

>  <SCORE.SYSTEM.REPUL>
0.0433429

>  <SCORE.SYSTEM.VDW>
5.48991

>  <SCORE.SYSTEM.norm>
-0.137951

>  <SCORE.heavy>
30

>  <SCORE.norm>
-9.78718

$$$$
F1609-0781
  rDOCK(R)          3D
libRbt.so/2013.1/901 2013/11/27
 31 34  0  0  0  0  0  0  0  0999 V2000
  -15.2119   15.3276  -18.7434 C   0  0  0  0  0  0
  -15.9076   16.5653  -18.8809 O   0  0  0  0  0  0
  -16.7406   16.7286  -17.8044 C   0  0  0  0  0  0
  -17.9111   15.4724  -17.4569 C   0  0  0  0  0  0
  -18.8486   15.6255  -15.9757 C   0  0  0  0  0  0
  -18.6606   17.2579  -14.7729 C   0  0  0  0  0  0
  -17.4029   18.4549  -15.2900 C   0  0  0  0  0  0
  -16.4784   18.1623  -16.7716 C   0  0  0  0  0  0
  -19.9166   18.2940  -13.6131 S   0  0  0  0  0  0
  -20.0041   17.6549  -12.3135 O   0  0  0  0  0  0
  -19.3748   19.6513  -13.6610 O   0  0  0  0  0  0
  -21.5794   18.4487  -14.3466 C   0  0  0  0  0  0
  -22.5258   19.4895  -14.1438 C   0  0  0  0  0  0
  -22.4409   20.5258  -13.2193 N   0  0  0  0  0  0
  -21.6242   20.6215  -12.0470 C   0  0  0  0  0  0
  -22.3373   21.2654  -10.9309 C   0  0  0  0  0  0
  -22.6990   20.1529   -9.5823 C   0  0  0  0  0  0
  -23.3314   20.6692   -8.0744 C   0  0  0  0  0  0
  -23.6598   22.3903   -7.8520 C   0  0  0  0  0  0
  -23.3091   23.7106   -9.3654 C   0  0  0  0  0  0
  -22.6009   23.0435  -10.8704 C   0  0  0  0  0  0
  -23.7762   19.4041  -14.8574 C   0  0  0  0  0  0
  -23.9796   18.3171  -15.7342 C   0  0  0  0  0  0
  -25.1328   18.2685  -16.5071 C   0  0  0  0  0  0
  -26.1241   19.2481  -16.4257 C   0  0  0  0  0  0
  -25.9818   20.2756  -15.5129 C   0  0  0  0  0  0
  -27.1981   21.4814  -15.3640 Cl  0  0  0  0  0  0
  -24.8372   20.3454  -14.7258 C   0  0  0  0  0  0
  -23.1066   17.3153  -15.8601 N   0  0  0  0  0  0
  -21.9412   17.3925  -15.1766 C   0  0  0  0  0  0
  -23.1775   21.2172  -13.2211 H   0  0  0  0  0  0
  1  2  1  0  0  0
  2  3  1  0  0  0
  3  4  2  0  0  0
  3  8  1  0  0  0
  4  5  1  0  0  0
  5  6  2  0  0  0
  6  7  1  0  0  0
  6  9  1  0  0  0
  7  8  2  0  0  0
  9 10  2  0  0  0
  9 11  2  0  0  0
  9 12  1  0  0  0
 12 13  2  0  0  0
 12 30  1  0  0  0
 13 14  1  0  0  0
 13 22  1  0  0  0
 14 15  1  0  0  0
 14 31  1  0  0  0
 15 16  1  0  0  0
 16 17  2  0  0  0
 16 21  1  0  0  0
 17 18  1  0  0  0
 18 19  2  0  0  0
 19 20  1  0  0  0
 20 21  2  0  0  0
 22 23  2  0  0  0
 22 28  1  0  0  0
 23 24  1  0  0  0
 23 29  1  0  0  0
 24 25  2  0  0  0
 25 26  1  0  0  0
 26 27  1  0  0  0
 26 28  2  0  0  0
 29 30  2  0  0  0
M  END
>  <CHROM.0>
37.85493028,-74.60623549,-128.46427272,66.86909889,168.62328633,63.81891570
-156.64896513,-160.35955350

>  <CHROM.1>
-55.61649099,84.87856017,-152.17859294,-18.31855182,-141.53361363,111.54948336
-21.62213150,19.11468046,-14.25062595,0.70852002,0.29251054,-2.00374156

>  <Name>
F1609-0781

>  <RI>
1.90201e+07

>  <Rbt.Current_Directory>
/home/adria/Escritorio/rDock_CMTR_LC/2pxcA_model/inputs_sah

>  <Rbt.Executable>
rbdock ($Id: //depot/dev/client3/rdock/2013.1/src/exe/rbdock.cxx#4 $)

>  <Rbt.Library>
libRbt.so (2013.1, Build901 2013/11/27)

>  <Rbt.Parameter_File>
/home/adria/Escritorio/rDock_2013.1_src/data/scripts/dock.prm

>  <Rbt.Receptor>
sah_rdock.prm

>  <SCORE>
-286.244

>  <SCORE.INTER>
-8.23409

>  <SCORE.INTER.CONST>
1

>  <SCORE.INTER.POLAR>
-0.664169

>  <SCORE.INTER.REPUL>
0

>  <SCORE.INTER.ROT>
6

>  <SCORE.INTER.VDW>
-17.3759

>  <SCORE.INTER.norm>
-0.27447

>  <SCORE.INTRA>
-280.089

>  <SCORE.INTRA.DIHEDRAL>
-0.671173

>  <SCORE.INTRA.DIHEDRAL.0>
10.0435

>  <SCORE.INTRA.POLAR>
0

>  <SCORE.INTRA.POLAR.0>
0

>  <SCORE.INTRA.REPUL>
0

>  <SCORE.INTRA.REPUL.0>
0

>  <SCORE.INTRA.VDW>
-279.754

>  <SCORE.INTRA.VDW.0>
279.063

>  <SCORE.INTRA.norm>
-9.33631

>  <SCORE.RESTR>
0.112362

>  <SCORE.RESTR.CAVITY>
0.112362

>  <SCORE.RESTR.norm>
0.0037454

>  <SCORE.SYSTEM>
1.96712

>  <SCORE.SYSTEM.CONST>
0

>  <SCORE.SYSTEM.DIHEDRAL>
9.20424

>  <SCORE.SYSTEM.POLAR>
-4.48374

>  <SCORE.SYSTEM.REPUL>
0.171071

>  <SCORE.SYSTEM.VDW>
11.7544

>  <SCORE.SYSTEM.norm>
0.0655707

>  <SCORE.heavy>
30

>  <SCORE.norm>
-9.54146

$$$$
F1609-0781
  rDOCK(R)          3D
libRbt.so/2013.1/901 2013/11/27
 31 34  0  0  0  0  0  0  0  0999 V2000
  -22.9145   24.9411  -12.2873 C   0  0  0  0  0  0
  -21.8682   24.3427  -11.5244 O   0  0  0  0  0  0
  -21.7800   23.0154  -11.8561 C   0  0  0  0  0  0
  -22.4667   21.8340  -10.7600 C   0  0  0  0  0  0
  -22.4916   20.1559  -11.2890 C   0  0  0  0  0  0
  -21.6506   19.5952  -13.0569 C   0  0  0  0  0  0
  -20.9875   20.9511  -14.0587 C   0  0  0  0  0  0
  -21.0731   22.6101  -13.4457 C   0  0  0  0  0  0
  -20.6904   17.9619  -13.6943 S   0  0  0  0  0  0
  -20.4420   17.0831  -12.5669 O   0  0  0  0  0  0
  -21.5547   17.4600  -14.7617 O   0  0  0  0  0  0
  -19.1213   18.3570  -14.5362 C   0  0  0  0  0  0
  -18.4950   17.6380  -15.5902 C   0  0  0  0  0  0
  -18.8705   16.3953  -16.0905 N   0  0  0  0  0  0
  -18.7882   15.9031  -17.4327 C   0  0  0  0  0  0
  -17.9462   14.6985  -17.5262 C   0  0  0  0  0  0
  -18.6581   13.2699  -16.7267 C   0  0  0  0  0  0
  -18.0025   11.6905  -16.8538 C   0  0  0  0  0  0
  -16.5346   11.4705  -17.8110 C   0  0  0  0  0  0
  -15.6459   13.0661  -18.7169 C   0  0  0  0  0  0
  -16.4636   14.6512  -18.5433 C   0  0  0  0  0  0
  -17.2582   18.1629  -16.1144 C   0  0  0  0  0  0
  -16.7556   19.3678  -15.5781 C   0  0  0  0  0  0
  -15.6215   19.9439  -16.1360 C   0  0  0  0  0  0
  -14.9336   19.3541  -17.1981 C   0  0  0  0  0  0
  -15.3618   18.1326  -17.6817 C   0  0  0  0  0  0
  -14.5196   17.3627  -18.9676 Cl  0  0  0  0  0  0
  -16.4936   17.5340  -17.1386 C   0  0  0  0  0  0
  -17.3229   19.9920  -14.5437 N   0  0  0  0  0  0
  -18.4753   19.4871  -14.0453 C   0  0  0  0  0  0
  -19.4707   15.8205  -15.5161 H   0  0  0  0  0  0
  1  2  1  0  0  0
  2  3  1  0  0  0
  3  4  2  0  0  0
  3  8  1  0  0  0
  4  5  1  0  0  0
  5  6  2  0  0  0
  6  7  1  0  0  0
  6  9  1  0  0  0
  7  8  2  0  0  0
  9 10  2  0  0  0
  9 11  2  0  0  0
  9 12  1  0  0  0
 12 13  2  0  0  0
 12 30  1  0  0  0
 13 14  1  0  0  0
 13 22  1  0  0  0
 14 15  1  0  0  0
 14 31  1  0  0  0
 15 16  1  0  0  0
 16 17  2  0  0  0
 16 21  1  0  0  0
 17 18  1  0  0  0
 18 19  2  0  0  0
 19 20  1  0  0  0
 20 21  2  0  0  0
 22 23  2  0  0  0
 22 28  1  0  0  0
 23 24  1  0  0  0
 23 29  1  0  0  0
 24 25  2  0  0  0
 25 26  1  0  0  0
 26 27  1  0  0  0
 26 28  2  0  0  0
 29 30  2  0  0  0
M  END
>  <CHROM.0>
-62.96641692,-74.39459979,72.48308390,-62.27951759,-29.64747601,-177.91977072
82.03511782,-157.71344245

>  <CHROM.1>
-102.20174173,-7.93029679,-149.10105092,146.22383099,120.33286152,68.17766479
-18.71174971,18.20113103,-15.28942733,-2.25381475,-0.61803519,-2.91065281

>  <Name>
F1609-0781

>  <RI>
1.90201e+07

>  <Rbt.Current_Directory>
/home/adria/Escritorio/rDock_CMTR_LC/2pxcA_model/inputs_sah

>  <Rbt.Executable>
rbdock ($Id: //depot/dev/client3/rdock/2013.1/src/exe/rbdock.cxx#4 $)

>  <Rbt.Library>
libRbt.so (2013.1, Build901 2013/11/27)

>  <Rbt.Parameter_File>
/home/adria/Escritorio/rDock_2013.1_src/data/scripts/dock.prm

>  <Rbt.Receptor>
sah_rdock.prm

>  <SCORE>
-300.145

>  <SCORE.INTER>
-14.4563

>  <SCORE.INTER.CONST>
1

>  <SCORE.INTER.POLAR>
-0.770798

>  <SCORE.INTER.REPUL>
0

>  <SCORE.INTER.ROT>
6

>  <SCORE.INTER.VDW>
-23.2356

>  <SCORE.INTER.norm>
-0.481878

>  <SCORE.INTRA>
-278.16

>  <SCORE.INTRA.DIHEDRAL>
3.51944

>  <SCORE.INTRA.DIHEDRAL.0>
10.0435

>  <SCORE.INTRA.POLAR>
0

>  <SCORE.INTRA.POLAR.0>
0

>  <SCORE.INTRA.REPUL>
0

>  <SCORE.INTRA.REPUL.0>
0

>  <SCORE.INTRA.VDW>
-279.919

>  <SCORE.INTRA.VDW.0>
279.063

>  <SCORE.INTRA.norm>
-9.27199

>  <SCORE.RESTR>
0

>  <SCORE.RESTR.CAVITY>
0

>  <SCORE.RESTR.norm>
0

>  <SCORE.SYSTEM>
-7.52931

>  <SCORE.SYSTEM.CONST>
0

>  <SCORE.SYSTEM.DIHEDRAL>
6.85368

>  <SCORE.SYSTEM.POLAR>
-4.06589

>  <SCORE.SYSTEM.REPUL>
0.0409303

>  <SCORE.SYSTEM.VDW>
2.66323

>  <SCORE.SYSTEM.norm>
-0.250977

>  <SCORE.heavy>
30

>  <SCORE.norm>
-10.0048

$$$$
F1609-0781
  rDOCK(R)          3D
libRbt.so/2013.1/901 2013/11/27
 31 34  0  0  0  0  0  0  0  0999 V2000
  -18.3854   12.9146  -17.8036 C   0  0  0  0  0  0
  -17.9958   13.8295  -18.8264 O   0  0  0  0  0  0
  -17.8280   15.0715  -18.2708 C   0  0  0  0  0  0
  -16.2973   15.8905  -18.5053 C   0  0  0  0  0  0
  -16.1686   17.5483  -17.9294 C   0  0  0  0  0  0
  -17.7018   18.4384  -16.9274 C   0  0  0  0  0  0
  -19.2063   17.4404  -16.7776 C   0  0  0  0  0  0
  -19.2364   15.8030  -17.4509 C   0  0  0  0  0  0
  -17.8163   19.7746  -15.4451 S   0  0  0  0  0  0
  -16.5198   19.8891  -14.8037 O   0  0  0  0  0  0
  -18.3475   20.9652  -16.1072 O   0  0  0  0  0  0
  -19.0879   19.3427  -14.2109 C   0  0  0  0  0  0
  -19.8409   20.2274  -13.3920 C   0  0  0  0  0  0
  -19.6503   21.5982  -13.2498 N   0  0  0  0  0  0
  -20.5774   22.6648  -13.4811 C   0  0  0  0  0  0
  -21.0297   23.2830  -12.2233 C   0  0  0  0  0  0
  -19.7371   24.1572  -11.3560 C   0  0  0  0  0  0
  -20.0196   25.1408   -9.9802 C   0  0  0  0  0  0
  -21.6746   25.2802   -9.3792 C   0  0  0  0  0  0
  -23.1926   24.2754  -10.2970 C   0  0  0  0  0  0
  -22.7654   23.3231  -11.7537 C   0  0  0  0  0  0
  -20.8144   19.6470  -12.5002 C   0  0  0  0  0  0
  -20.9872   18.2463  -12.5095 C   0  0  0  0  0  0
  -21.9881   17.6757  -11.7336 C   0  0  0  0  0  0
  -22.8183   18.4398  -10.9116 C   0  0  0  0  0  0
  -22.6101   19.8031  -10.8254 C   0  0  0  0  0  0
  -23.5934   20.7700   -9.7988 Cl  0  0  0  0  0  0
  -21.6127   20.3983  -11.5906 C   0  0  0  0  0  0
  -20.2241   17.4276  -13.2367 N   0  0  0  0  0  0
  -19.3015   17.9763  -14.0608 C   0  0  0  0  0  0
  -18.7002   21.9350  -13.1821 H   0  0  0  0  0  0
  1  2  1  0  0  0
  2  3  1  0  0  0
  3  4  2  0  0  0
  3  8  1  0  0  0
  4  5  1  0  0  0
  5  6  2  0  0  0
  6  7  1  0  0  0
  6  9  1  0  0  0
  7  8  2  0  0  0
  9 10  2  0  0  0
  9 11  2  0  0  0
  9 12  1  0  0  0
 12 13  2  0  0  0
 12 30  1  0  0  0
 13 14  1  0  0  0
 13 22  1  0  0  0
 14 15  1  0  0  0
 14 31  1  0  0  0
 15 16  1  0  0  0
 16 17  2  0  0  0
 16 21  1  0  0  0
 17 18  1  0  0  0
 18 19  2  0  0  0
 19 20  1  0  0  0
 20 21  2  0  0  0
 22 23  2  0  0  0
 22 28  1  0  0  0
 23 24  1  0  0  0
 23 29  1  0  0  0
 24 25  2  0  0  0
 25 26  1  0  0  0
 26 27  1  0  0  0
 26 28  2  0  0  0
 29 30  2  0  0  0
M  END
>  <CHROM.0>
-175.60725539,68.01257628,88.67032043,66.43610900,35.39829930,-57.67128464
-36.21754214,-40.81145550

>  <CHROM.1>
125.25316279,-14.94317293,-151.01808441,122.73924154,108.08908619,67.09251415
-19.94319132,19.60454240,-13.77584170,0.99262787,-0.73780105,-2.75495938

>  <Name>
F1609-0781

>  <RI>
1.90201e+07

>  <Rbt.Current_Directory>
/home/adria/Escritorio/rDock_CMTR_LC/2pxcA_model/inputs_sah

>  <Rbt.Executable>
rbdock ($Id: //depot/dev/client3/rdock/2013.1/src/exe/rbdock.cxx#4 $)

>  <Rbt.Library>
libRbt.so (2013.1, Build901 2013/11/27)

>  <Rbt.Parameter_File>
/home/adria/Escritorio/rDock_2013.1_src/data/scripts/dock.prm

>  <Rbt.Receptor>
sah_rdock.prm

>  <SCORE>
-284.247

>  <SCORE.INTER>
-14.921

>  <SCORE.INTER.CONST>
1

>  <SCORE.INTER.POLAR>
-1.121

>  <SCORE.INTER.REPUL>
0.00133899

>  <SCORE.INTER.ROT>
6

>  <SCORE.INTER.VDW>
-22.5162

>  <SCORE.INTER.norm>
-0.497365

>  <SCORE.INTRA>
-276.902

>  <SCORE.INTRA.DIHEDRAL>
6.86823

>  <SCORE.INTRA.DIHEDRAL.0>
10.0435

>  <SCORE.INTRA.POLAR>
0

>  <SCORE.INTRA.POLAR.0>
0

>  <SCORE.INTRA.REPUL>
0

>  <SCORE.INTRA.REPUL.0>
0

>  <SCORE.INTRA.VDW>
-280.336

>  <SCORE.INTRA.VDW.0>
279.063

>  <SCORE.INTRA.norm>
-9.23007

>  <SCORE.RESTR>
0

>  <SCORE.RESTR.CAVITY>
0

>  <SCORE.RESTR.norm>
0

>  <SCORE.SYSTEM>
7.57561

>  <SCORE.SYSTEM.CONST>
0

>  <SCORE.SYSTEM.DIHEDRAL>
8.16622

>  <SCORE.SYSTEM.POLAR>
-3.14941

>  <SCORE.SYSTEM.REPUL>
0.0351123

>  <SCORE.SYSTEM.VDW>
14.0249

>  <SCORE.SYSTEM.norm>
0.25252

>  <SCORE.heavy>
30

>  <SCORE.norm>
-9.47492

$$$$
F1609-0781
  rDOCK(R)          3D
libRbt.so/2013.1/901 2013/11/27
 31 34  0  0  0  0  0  0  0  0999 V2000
  -14.5464   17.5644  -18.5461 C   0  0  0  0  0  0
  -14.6351   17.0387  -17.2230 O   0  0  0  0  0  0
  -15.7648   17.5328  -16.6237 C   0  0  0  0  0  0
  -15.9170   19.2674  -16.4318 C   0  0  0  0  0  0
  -17.4462   19.8837  -15.8169 C   0  0  0  0  0  0
  -18.9374   18.6212  -15.2429 C   0  0  0  0  0  0
  -18.6029   16.8612  -15.5123 C   0  0  0  0  0  0
  -17.0463   16.3646  -16.1947 C   0  0  0  0  0  0
  -20.3439   18.6703  -13.8233 S   0  0  0  0  0  0
  -21.5339   17.9951  -14.3062 O   0  0  0  0  0  0
  -19.6678   18.0949  -12.6615 O   0  0  0  0  0  0
  -20.7564   20.3700  -13.3060 C   0  0  0  0  0  0
  -21.2521   20.7990  -12.0449 C   0  0  0  0  0  0
  -21.6753   19.9893  -10.9956 N   0  0  0  0  0  0
  -23.0078   19.6162  -10.6273 C   0  0  0  0  0  0
  -23.9737   20.6967  -10.8889 C   0  0  0  0  0  0
  -24.5335   21.5233   -9.4089 C   0  0  0  0  0  0
  -25.4930   22.9444   -9.4251 C   0  0  0  0  0  0
  -25.9676   23.6135  -10.9892 C   0  0  0  0  0  0
  -25.3978   22.6963  -12.7185 C   0  0  0  0  0  0
  -24.3555   21.2474  -12.5580 C   0  0  0  0  0  0
  -21.4835   22.2109  -11.8629 C   0  0  0  0  0  0
  -21.1798   23.0868  -12.9270 C   0  0  0  0  0  0
  -21.2990   24.4580  -12.7391 C   0  0  0  0  0  0
  -21.7428   25.0076  -11.5350 C   0  0  0  0  0  0
  -22.1243   24.1634  -10.5099 C   0  0  0  0  0  0
  -22.7055   24.8057   -9.0249 Cl  0  0  0  0  0  0
  -22.0165   22.7865  -10.6740 C   0  0  0  0  0  0
  -20.7787   22.6581  -14.1257 N   0  0  0  0  0  0
  -20.5776   21.3308  -14.2961 C   0  0  0  0  0  0
  -21.0134   19.7938  -10.2579 H   0  0  0  0  0  0
  1  2  1  0  0  0
  2  3  1  0  0  0
  3  4  2  0  0  0
  3  8  1  0  0  0
  4  5  1  0  0  0
  5  6  2  0  0  0
  6  7  1  0  0  0
  6  9  1  0  0  0
  7  8  2  0  0  0
  9 10  2  0  0  0
  9 11  2  0  0  0
  9 12  1  0  0  0
 12 13  2  0  0  0
 12 30  1  0  0  0
 13 14  1  0  0  0
 13 22  1  0  0  0
 14 15  1  0  0  0
 14 31  1  0  0  0
 15 16  1  0  0  0
 16 17  2  0  0  0
 16 21  1  0  0  0
 17 18  1  0  0  0
 18 19  2  0  0  0
 19 20  1  0  0  0
 20 21  2  0  0  0
 22 23  2  0  0  0
 22 28  1  0  0  0
 23 24  1  0  0  0
 23 29  1  0  0  0
 24 25  2  0  0  0
 25 26  1  0  0  0
 26 27  1  0  0  0
 26 28  2  0  0  0
 29 30  2  0  0  0
M  END
>  <CHROM.0>
-177.71825731,-74.11141889,-9.26253440,65.95817077,38.28581124,-58.83665821
82.79329470,-163.40372977

>  <CHROM.1>
-60.30259154,146.89507444,-152.55679134,-98.98955398,-34.25248589,-106.07772635
-20.83652873,20.76702237,-12.97106228,-0.69811585,0.56140058,0.25681355

>  <Name>
F1609-0781

>  <RI>
1.90201e+07

>  <Rbt.Current_Directory>
/home/adria/Escritorio/rDock_CMTR_LC/2pxcA_model/inputs_sah

>  <Rbt.Executable>
rbdock ($Id: //depot/dev/client3/rdock/2013.1/src/exe/rbdock.cxx#4 $)

>  <Rbt.Library>
libRbt.so (2013.1, Build901 2013/11/27)

>  <Rbt.Parameter_File>
/home/adria/Escritorio/rDock_2013.1_src/data/scripts/dock.prm

>  <Rbt.Receptor>
sah_rdock.prm

>  <SCORE>
-288.165

>  <SCORE.INTER>
-15.3307

>  <SCORE.INTER.CONST>
1

>  <SCORE.INTER.POLAR>
-1.57236

>  <SCORE.INTER.REPUL>
0

>  <SCORE.INTER.ROT>
6

>  <SCORE.INTER.VDW>
-21.3846

>  <SCORE.INTER.norm>
-0.511022

>  <SCORE.INTRA>
-277.877

>  <SCORE.INTRA.DIHEDRAL>
10.4398

>  <SCORE.INTRA.DIHEDRAL.0>
10.0435

>  <SCORE.INTRA.POLAR>
0

>  <SCORE.INTRA.POLAR.0>
0

>  <SCORE.INTRA.REPUL>
0

>  <SCORE.INTRA.REPUL.0>
0

>  <SCORE.INTRA.VDW>
-283.097

>  <SCORE.INTRA.VDW.0>
279.063

>  <SCORE.INTRA.norm>
-9.26256

>  <SCORE.RESTR>
0

>  <SCORE.RESTR.CAVITY>
0

>  <SCORE.RESTR.norm>
0

>  <SCORE.SYSTEM>
5.04271

>  <SCORE.SYSTEM.CONST>
0

>  <SCORE.SYSTEM.DIHEDRAL>
8.14919

>  <SCORE.SYSTEM.POLAR>
-4.2416

>  <SCORE.SYSTEM.REPUL>
0.0404596

>  <SCORE.SYSTEM.VDW>
15.1872

>  <SCORE.SYSTEM.norm>
0.16809

>  <SCORE.heavy>
30

>  <SCORE.norm>
-9.60549

$$$$
F1609-0781
  rDOCK(R)          3D
libRbt.so/2013.1/901 2013/11/27
 31 34  0  0  0  0  0  0  0  0999 V2000
  -16.1120   13.4163  -16.4539 C   0  0  0  0  0  0
  -15.4225   14.2234  -17.4069 O   0  0  0  0  0  0
  -15.7830   15.5332  -17.2231 C   0  0  0  0  0  0
  -14.5255   16.7052  -16.8855 C   0  0  0  0  0  0
  -14.9930   18.4004  -16.8234 C   0  0  0  0  0  0
  -16.9395   18.9653  -17.0219 C   0  0  0  0  0  0
  -18.1013   17.6181  -17.3647 C   0  0  0  0  0  0
  -17.5022   15.9547  -17.4632 C   0  0  0  0  0  0
  -18.0578   20.4299  -16.2474 S   0  0  0  0  0  0
  -17.2125   21.5717  -15.9527 O   0  0  0  0  0  0
  -19.1108   20.6114  -17.2456 O   0  0  0  0  0  0
  -18.9498   19.9083  -14.7443 C   0  0  0  0  0  0
  -19.7944   20.6969  -13.9167 C   0  0  0  0  0  0
  -19.9892   22.0724  -13.9934 N   0  0  0  0  0  0
  -21.1853   22.8262  -13.7660 C   0  0  0  0  0  0
  -21.0267   23.7902  -12.6640 C   0  0  0  0  0  0
  -22.2338   25.1053  -12.6909 C   0  0  0  0  0  0
  -22.4187   26.2450  -11.4232 C   0  0  0  0  0  0
  -21.3448   26.1217  -10.0264 C   0  0  0  0  0  0
  -19.9162   24.6693   -9.9496 C   0  0  0  0  0  0
  -19.8652   23.5143  -11.3188 C   0  0  0  0  0  0
  -20.4130   20.0513  -12.7851 C   0  0  0  0  0  0
  -20.1727   18.6760  -12.5787 C   0  0  0  0  0  0
  -20.8374   18.0117  -11.5558 C   0  0  0  0  0  0
  -21.7198   18.6663  -10.6945 C   0  0  0  0  0  0
  -21.9042   20.0291  -10.8281 C   0  0  0  0  0  0
  -22.9592   20.8725   -9.7646 Cl  0  0  0  0  0  0
  -21.2483   20.7176  -11.8431 C   0  0  0  0  0  0
  -19.3238   17.9690  -13.3278 N   0  0  0  0  0  0
  -18.7341   18.5833  -14.3794 C   0  0  0  0  0  0
  -19.2850   22.6199  -14.4677 H   0  0  0  0  0  0
  1  2  1  0  0  0
  2  3  1  0  0  0
  3  4  2  0  0  0
  3  8  1  0  0  0
  4  5  1  0  0  0
  5  6  2  0  0  0
  6  7  1  0  0  0
  6  9  1  0  0  0
  7  8  2  0  0  0
  9 10  2  0  0  0
  9 11  2  0  0  0
  9 12  1  0  0  0
 12 13  2  0  0  0
 12 30  1  0  0  0
 13 14  1  0  0  0
 13 22  1  0  0  0
 14 15  1  0  0  0
 14 31  1  0  0  0
 15 16  1  0  0  0
 16 17  2  0  0  0
 16 21  1  0  0  0
 17 18  1  0  0  0
 18 19  2  0  0  0
 19 20  1  0  0  0
 20 21  2  0  0  0
 22 23  2  0  0  0
 22 28  1  0  0  0
 23 24  1  0  0  0
 23 29  1  0  0  0
 24 25  2  0  0  0
 25 26  1  0  0  0
 26 27  1  0  0  0
 26 28  2  0  0  0
 29 30  2  0  0  0
M  END
>  <CHROM.0>
-61.16817799,-72.40737000,75.83977447,66.63676825,167.92788866,-176.52081871
-157.54365908,-161.60245256

>  <CHROM.1>
122.12901335,29.10689116,177.81915881,144.07186128,119.56741966,160.35817112
-19.34556934,20.08460823,-13.90100572,0.59065630,-0.90813566,2.98901462

>  <Name>
F1609-0781

>  <RI>
1.90201e+07

>  <Rbt.Current_Directory>
/home/adria/Escritorio/rDock_CMTR_LC/2pxcA_model/inputs_sah

>  <Rbt.Executable>
rbdock ($Id: //depot/dev/client3/rdock/2013.1/src/exe/rbdock.cxx#4 $)

>  <Rbt.Library>
libRbt.so (2013.1, Build901 2013/11/27)

>  <Rbt.Parameter_File>
/home/adria/Escritorio/rDock_2013.1_src/data/scripts/dock.prm

>  <Rbt.Receptor>
sah_rdock.prm

>  <SCORE>
-298.876

>  <SCORE.INTER>
-16.5572

>  <SCORE.INTER.CONST>
1

>  <SCORE.INTER.POLAR>
-0.745566

>  <SCORE.INTER.REPUL>
0.629277

>  <SCORE.INTER.ROT>
6

>  <SCORE.INTER.VDW>
-28.5686

>  <SCORE.INTER.norm>
-0.551905

>  <SCORE.INTRA>
-279.355

>  <SCORE.INTRA.DIHEDRAL>
1.90858

>  <SCORE.INTRA.DIHEDRAL.0>
10.0435

>  <SCORE.INTRA.POLAR>
0

>  <SCORE.INTRA.POLAR.0>
0

>  <SCORE.INTRA.REPUL>
0

>  <SCORE.INTRA.REPUL.0>
0

>  <SCORE.INTRA.VDW>
-280.309

>  <SCORE.INTRA.VDW.0>
279.063

>  <SCORE.INTRA.norm>
-9.31183

>  <SCORE.RESTR>
0.0138607

>  <SCORE.RESTR.CAVITY>
0.0138607

>  <SCORE.RESTR.norm>
0.000462024

>  <SCORE.SYSTEM>
-2.9773

>  <SCORE.SYSTEM.CONST>
0

>  <SCORE.SYSTEM.DIHEDRAL>
3.85085

>  <SCORE.SYSTEM.POLAR>
-4.02659

>  <SCORE.SYSTEM.REPUL>
0.0374601

>  <SCORE.SYSTEM.VDW>
8.60038

>  <SCORE.SYSTEM.norm>
-0.0992433

>  <SCORE.heavy>
30

>  <SCORE.norm>
-9.96252

$$$$
F1609-0781
  rDOCK(R)          3D
libRbt.so/2013.1/901 2013/11/27
 31 34  0  0  0  0  0  0  0  0999 V2000
  -23.4654   20.6770   -8.4993 C   0  0  0  0  0  0
  -23.4291   19.3219   -8.9434 O   0  0  0  0  0  0
  -23.2255   19.3041  -10.2990 C   0  0  0  0  0  0
  -24.5738   19.6854  -11.3503 C   0  0  0  0  0  0
  -24.2445   19.8224  -13.0735 C   0  0  0  0  0  0
  -22.3917   19.4388  -13.8265 C   0  0  0  0  0  0
  -21.1218   19.0588  -12.5915 C   0  0  0  0  0  0
  -21.5613   19.0081  -10.8770 C   0  0  0  0  0  0
  -21.7098   18.6486  -15.5313 S   0  0  0  0  0  0
  -22.0278   17.2333  -15.5628 O   0  0  0  0  0  0
  -22.3120   19.4971  -16.5587 O   0  0  0  0  0  0
  -19.9147   18.8905  -15.7455 C   0  0  0  0  0  0
  -18.9354   17.9074  -16.0533 C   0  0  0  0  0  0
  -19.1222   16.5295  -16.0987 N   0  0  0  0  0  0
  -18.5367   15.5705  -16.9865 C   0  0  0  0  0  0
  -17.8816   14.4725  -16.2558 C   0  0  0  0  0  0
  -16.4153   13.8551  -17.0656 C   0  0  0  0  0  0
  -15.3414   12.7282  -16.3465 C   0  0  0  0  0  0
  -15.7174   12.1334  -14.7266 C   0  0  0  0  0  0
  -17.3981   12.7652  -13.7608 C   0  0  0  0  0  0
  -18.4060   13.9815  -14.6069 C   0  0  0  0  0  0
  -17.5693   18.3470  -16.1968 C   0  0  0  0  0  0
  -17.2847   19.7220  -16.0549 C   0  0  0  0  0  0
  -15.9946   20.1809  -16.2887 C   0  0  0  0  0  0
  -14.9501   19.3204  -16.6316 C   0  0  0  0  0  0
  -15.1906   17.9612  -16.6936 C   0  0  0  0  0  0
  -13.9202   16.8700  -17.0819 Cl  0  0  0  0  0  0
  -16.4734   17.4763  -16.4615 C   0  0  0  0  0  0
  -18.2068   20.6193  -15.7000 N   0  0  0  0  0  0
  -19.4846   20.1993  -15.5515 C   0  0  0  0  0  0
  -19.9158   16.1473  -15.6040 H   0  0  0  0  0  0
  1  2  1  0  0  0
  2  3  1  0  0  0
  3  4  2  0  0  0
  3  8  1  0  0  0
  4  5  1  0  0  0
  5  6  2  0  0  0
  6  7  1  0  0  0
  6  9  1  0  0  0
  7  8  2  0  0  0
  9 10  2  0  0  0
  9 11  2  0  0  0
  9 12  1  0  0  0
 12 13  2  0  0  0
 12 30  1  0  0  0
 13 14  1  0  0  0
 13 22  1  0  0  0
 14 15  1  0  0  0
 14 31  1  0  0  0
 15 16  1  0  0  0
 16 17  2  0  0  0
 16 21  1  0  0  0
 17 18  1  0  0  0
 18 19  2  0  0  0
 19 20  1  0  0  0
 20 21  2  0  0  0
 22 23  2  0  0  0
 22 28  1  0  0  0
 23 24  1  0  0  0
 23 29  1  0  0  0
 24 25  2  0  0  0
 25 26  1  0  0  0
 26 27  1  0  0  0
 26 28  2  0  0  0
 29 30  2  0  0  0
M  END
>  <CHROM.0>
-62.06160595,65.10295546,-130.24755444,-63.56869809,168.09048837,-61.58237377
79.22874377,-53.39511558

>  <CHROM.1>
-76.52676484,-69.29634806,128.88039290,143.79436072,126.35574588,-145.34087022
-19.15205477,17.72441886,-14.82579708,2.92610716,0.66550652,-0.32401659

>  <Name>
F1609-0781

>  <RI>
1.90201e+07

>  <Rbt.Current_Directory>
/home/adria/Escritorio/rDock_CMTR_LC/2pxcA_model/inputs_sah

>  <Rbt.Executable>
rbdock ($Id: //depot/dev/client3/rdock/2013.1/src/exe/rbdock.cxx#4 $)

>  <Rbt.Library>
libRbt.so (2013.1, Build901 2013/11/27)

>  <Rbt.Parameter_File>
/home/adria/Escritorio/rDock_2013.1_src/data/scripts/dock.prm

>  <Rbt.Receptor>
sah_rdock.prm

>  <SCORE>
-294.783

>  <SCORE.INTER>
-16.064

>  <SCORE.INTER.CONST>
1

>  <SCORE.INTER.POLAR>
-0.903567

>  <SCORE.INTER.REPUL>
0.0264014

>  <SCORE.INTER.ROT>
6

>  <SCORE.INTER.VDW>
-24.5239

>  <SCORE.INTER.norm>
-0.535467

>  <SCORE.INTRA>
-279.73

>  <SCORE.INTRA.DIHEDRAL>
2.86016

>  <SCORE.INTRA.DIHEDRAL.0>
10.0435

>  <SCORE.INTRA.POLAR>
-0.0975858

>  <SCORE.INTRA.POLAR.0>
0

>  <SCORE.INTRA.REPUL>
0

>  <SCORE.INTRA.REPUL.0>
0

>  <SCORE.INTRA.VDW>
-280.828

>  <SCORE.INTRA.VDW.0>
279.063

>  <SCORE.INTRA.norm>
-9.32432

>  <SCORE.RESTR>
0

>  <SCORE.RESTR.CAVITY>
0

>  <SCORE.RESTR.norm>
0

>  <SCORE.SYSTEM>
1.01037

>  <SCORE.SYSTEM.CONST>
0

>  <SCORE.SYSTEM.DIHEDRAL>
8.1712

>  <SCORE.SYSTEM.POLAR>
-3.62859

>  <SCORE.SYSTEM.REPUL>
0.00307479

>  <SCORE.SYSTEM.VDW>
9.24661

>  <SCORE.SYSTEM.norm>
0.033679

>  <SCORE.heavy>
30

>  <SCORE.norm>
-9.82611

$$$$
F1609-0781
  rDOCK(R)          3D
libRbt.so/2013.1/901 2013/11/27
 31 34  0  0  0  0  0  0  0  0999 V2000
  -15.0064   15.6835  -18.0947 C   0  0  0  0  0  0
  -15.4510   16.8676  -18.7543 O   0  0  0  0  0  0
  -15.9753   17.7251  -17.8219 C   0  0  0  0  0  0
  -15.0371   19.1305  -17.3599 C   0  0  0  0  0  0
  -15.8031   20.3013  -16.2928 C   0  0  0  0  0  0
  -17.6646   19.9761  -15.5337 C   0  0  0  0  0  0
  -18.4833   18.4702  -16.1202 C   0  0  0  0  0  0
  -17.6328   17.3966  -17.2425 C   0  0  0  0  0  0
  -18.5689   20.4189  -13.8068 S   0  0  0  0  0  0
  -17.6081   20.3173  -12.7244 O   0  0  0  0  0  0
  -19.1574   21.7326  -14.0638 O   0  0  0  0  0  0
  -20.0030   19.3427  -13.4723 C   0  0  0  0  0  0
  -21.3275   19.7372  -13.1401 C   0  0  0  0  0  0
  -21.7655   21.0245  -12.8460 N   0  0  0  0  0  0
  -23.1055   21.5229  -12.7650 C   0  0  0  0  0  0
  -23.1394   22.9615  -12.4520 C   0  0  0  0  0  0
  -21.9209   23.4550  -11.2441 C   0  0  0  0  0  0
  -21.5939   25.0901  -10.8445 C   0  0  0  0  0  0
  -22.5260   26.3508  -11.6578 C   0  0  0  0  0  0
  -23.9620   25.8558  -13.0177 C   0  0  0  0  0  0
  -24.1661   24.1122  -13.3776 C   0  0  0  0  0  0
  -22.3051   18.6955  -12.9417 C   0  0  0  0  0  0
  -21.9054   17.3533  -13.1159 C   0  0  0  0  0  0
  -22.8527   16.3410  -13.0294 C   0  0  0  0  0  0
  -24.1941   16.6006  -12.7423 C   0  0  0  0  0  0
  -24.5884   17.8999  -12.4863 C   0  0  0  0  0  0
  -26.2259   18.2515  -12.0985 Cl  0  0  0  0  0  0
  -23.6583   18.9311  -12.5645 C   0  0  0  0  0  0
  -20.6420   17.0002  -13.3621 N   0  0  0  0  0  0
  -19.7251   17.9809  -13.5323 C   0  0  0  0  0  0
  -21.0892   21.7732  -12.8978 H   0  0  0  0  0  0
  1  2  1  0  0  0
  2  3  1  0  0  0
  3  4  2  0  0  0
  3  8  1  0  0  0
  4  5  1  0  0  0
  5  6  2  0  0  0
  6  7  1  0  0  0
  6  9  1  0  0  0
  7  8  2  0  0  0
  9 10  2  0  0  0
  9 11  2  0  0  0
  9 12  1  0  0  0
 12 13  2  0  0  0
 12 30  1  0  0  0
 13 14  1  0  0  0
 13 22  1  0  0  0
 14 15  1  0  0  0
 14 31  1  0  0  0
 15 16  1  0  0  0
 16 17  2  0  0  0
 16 21  1  0  0  0
 17 18  1  0  0  0
 18 19  2  0  0  0
 19 20  1  0  0  0
 20 21  2  0  0  0
 22 23  2  0  0  0
 22 28  1  0  0  0
 23 24  1  0  0  0
 23 29  1  0  0  0
 24 25  2  0  0  0
 25 26  1  0  0  0
 26 27  1  0  0  0
 26 28  2  0  0  0
 29 30  2  0  0  0
M  END
>  <CHROM.0>
-61.36936045,-165.85980015,75.27532851,65.55610398,168.66808327,-54.80701844
82.89338427,-159.73196908

>  <CHROM.1>
105.53593459,-35.81488317,-128.06207321,166.37780547,-178.83864696,-39.89201697
-20.65393299,19.81620117,-13.88594179,0.50430846,-0.45944648,-2.90988008

>  <Name>
F1609-0781

>  <RI>
1.90201e+07

>  <Rbt.Current_Directory>
/home/adria/Escritorio/rDock_CMTR_LC/2pxcA_model/inputs_sah

>  <Rbt.Executable>
rbdock ($Id: //depot/dev/client3/rdock/2013.1/src/exe/rbdock.cxx#4 $)

>  <Rbt.Library>
libRbt.so (2013.1, Build901 2013/11/27)

>  <Rbt.Parameter_File>
/home/adria/Escritorio/rDock_2013.1_src/data/scripts/dock.prm

>  <Rbt.Receptor>
sah_rdock.prm

>  <SCORE>
-291.798

>  <SCORE.INTER>
-14.0543

>  <SCORE.INTER.CONST>
1

>  <SCORE.INTER.POLAR>
-0.645098

>  <SCORE.INTER.REPUL>
0

>  <SCORE.INTER.ROT>
6

>  <SCORE.INTER.VDW>
-23.2609

>  <SCORE.INTER.norm>
-0.468476

>  <SCORE.INTRA>
-276.292

>  <SCORE.INTRA.DIHEDRAL>
1.22058

>  <SCORE.INTRA.DIHEDRAL.0>
10.0435

>  <SCORE.INTRA.POLAR>
-0.230822

>  <SCORE.INTRA.POLAR.0>
0

>  <SCORE.INTRA.REPUL>
0

>  <SCORE.INTRA.REPUL.0>
0

>  <SCORE.INTRA.VDW>
-276.117

>  <SCORE.INTRA.VDW.0>
279.063

>  <SCORE.INTRA.norm>
-9.20972

>  <SCORE.RESTR>
0.0116539

>  <SCORE.RESTR.CAVITY>
0.0116539

>  <SCORE.RESTR.norm>
0.000388464

>  <SCORE.SYSTEM>
-1.46339

>  <SCORE.SYSTEM.CONST>
0

>  <SCORE.SYSTEM.DIHEDRAL>
4.05219

>  <SCORE.SYSTEM.POLAR>
-3.64437

>  <SCORE.SYSTEM.VDW>
8.90137

>  <SCORE.SYSTEM.norm>
-0.0487796

>  <SCORE.heavy>
30

>  <SCORE.norm>
-9.72659

$$$$
F1609-0781
  rDOCK(R)          3D
libRbt.so/2013.1/901 2013/11/27
 31 34  0  0  0  0  0  0  0  0999 V2000
  -24.2185   16.9297  -11.0064 C   0  0  0  0  0  0
  -25.2957   17.6398  -10.3978 O   0  0  0  0  0  0
  -25.3610   18.8973  -10.9397 C   0  0  0  0  0  0
  -26.7322   19.2990  -11.9532 C   0  0  0  0  0  0
  -26.8786   20.9668  -12.4950 C   0  0  0  0  0  0
  -25.4477   22.3476  -12.0555 C   0  0  0  0  0  0
  -24.1021   21.7527  -10.9984 C   0  0  0  0  0  0
  -24.0941   20.0641  -10.4657 C   0  0  0  0  0  0
  -24.6949   23.9351  -13.0089 S   0  0  0  0  0  0
  -24.4562   23.5896  -14.3977 O   0  0  0  0  0  0
  -25.6741   24.9860  -12.7351 O   0  0  0  0  0  0
  -23.1560   24.5456  -12.2434 C   0  0  0  0  0  0
  -21.9566   23.8211  -12.0050 C   0  0  0  0  0  0
  -21.7634   22.4524  -12.1627 N   0  0  0  0  0  0
  -20.9847   21.5552  -11.3631 C   0  0  0  0  0  0
  -20.4547   20.4320  -12.1545 C   0  0  0  0  0  0
  -21.4502   18.9540  -12.0461 C   0  0  0  0  0  0
  -21.1909   17.5660  -13.0188 C   0  0  0  0  0  0
  -19.8562   17.5943  -14.1752 C   0  0  0  0  0  0
  -18.6540   19.2343  -14.3217 C   0  0  0  0  0  0
  -19.0674   20.6336  -13.2812 C   0  0  0  0  0  0
  -20.8555   24.5313  -11.4022 C   0  0  0  0  0  0
  -21.0160   25.9029  -11.1112 C   0  0  0  0  0  0
  -19.9366   26.6295  -10.6248 C   0  0  0  0  0  0
  -18.6943   26.0416  -10.3801 C   0  0  0  0  0  0
  -18.5416   24.6829  -10.5798 C   0  0  0  0  0  0
  -17.0346   23.9205  -10.2584 Cl  0  0  0  0  0  0
  -19.6079   23.9328  -11.0642 C   0  0  0  0  0  0
  -22.1718   26.5486  -11.2807 N   0  0  0  0  0  0
  -23.2068   25.8738  -11.8327 C   0  0  0  0  0  0
  -22.0110   22.0433  -13.0526 H   0  0  0  0  0  0
  1  2  1  0  0  0
  2  3  1  0  0  0
  3  4  2  0  0  0
  3  8  1  0  0  0
  4  5  1  0  0  0
  5  6  2  0  0  0
  6  7  1  0  0  0
  6  9  1  0  0  0
  7  8  2  0  0  0
  9 10  2  0  0  0
  9 11  2  0  0  0
  9 12  1  0  0  0
 12 13  2  0  0  0
 12 30  1  0  0  0
 13 14  1  0  0  0
 13 22  1  0  0  0
 14 15  1  0  0  0
 14 31  1  0  0  0
 15 16  1  0  0  0
 16 17  2  0  0  0
 16 21  1  0  0  0
 17 18  1  0  0  0
 18 19  2  0  0  0
 19 20  1  0  0  0
 20 21  2  0  0  0
 22 23  2  0  0  0
 22 28  1  0  0  0
 23 24  1  0  0  0
 23 29  1  0  0  0
 24 25  2  0  0  0
 25 26  1  0  0  0
 26 27  1  0  0  0
 26 28  2  0  0  0
 29 30  2  0  0  0
M  END
>  <CHROM.0>
-69.89977292,-72.05470644,-127.50084298,63.35335261,168.35824028,55.29267146
-35.41376890,-159.96738137

>  <CHROM.1>
111.43995027,-44.23078430,56.65933846,-142.67743342,-150.26008249,-96.79081721
-22.12746458,22.30559204,-11.84255708,-2.31586077,-0.09405305,0.07602785

>  <Name>
F1609-0781

>  <RI>
1.90201e+07

>  <Rbt.Current_Directory>
/home/adria/Escritorio/rDock_CMTR_LC/2pxcA_model/inputs_sah

>  <Rbt.Executable>
rbdock ($Id: //depot/dev/client3/rdock/2013.1/src/exe/rbdock.cxx#4 $)

>  <Rbt.Library>
libRbt.so (2013.1, Build901 2013/11/27)

>  <Rbt.Parameter_File>
/home/adria/Escritorio/rDock_2013.1_src/data/scripts/dock.prm

>  <Rbt.Receptor>
sah_rdock.prm

>  <SCORE>
-288.615

>  <SCORE.INTER>
-10.1384

>  <SCORE.INTER.CONST>
1

>  <SCORE.INTER.POLAR>
-1.06557

>  <SCORE.INTER.REPUL>
0

>  <SCORE.INTER.ROT>
6

>  <SCORE.INTER.VDW>
-17.9155

>  <SCORE.INTER.norm>
-0.337946

>  <SCORE.INTRA>
-276.48

>  <SCORE.INTRA.DIHEDRAL>
4.83993

>  <SCORE.INTRA.DIHEDRAL.0>
10.0435

>  <SCORE.INTRA.POLAR>
0

>  <SCORE.INTRA.POLAR.0>
0

>  <SCORE.INTRA.REPUL>
0

>  <SCORE.INTRA.REPUL.0>
0

>  <SCORE.INTRA.VDW>
-278.9

>  <SCORE.INTRA.VDW.0>
279.063

>  <SCORE.INTRA.norm>
-9.21601

>  <SCORE.RESTR>
0

>  <SCORE.RESTR.CAVITY>
0

>  <SCORE.RESTR.norm>
0

>  <SCORE.SYSTEM>
-1.99607

>  <SCORE.SYSTEM.CONST>
0

>  <SCORE.SYSTEM.DIHEDRAL>
7.24743

>  <SCORE.SYSTEM.POLAR>
-4.46573

>  <SCORE.SYSTEM.REPUL>
0.0368039

>  <SCORE.SYSTEM.VDW>
9.37967

>  <SCORE.SYSTEM.norm>
-0.0665358

>  <SCORE.heavy>
30

>  <SCORE.norm>
-9.62049

$$$$
F1609-0781
  rDOCK(R)          3D
libRbt.so/2013.1/901 2013/11/27
 31 34  0  0  0  0  0  0  0  0999 V2000
  -14.6758   14.9634  -18.8069 C   0  0  0  0  0  0
  -14.3650   15.5248  -17.5329 O   0  0  0  0  0  0
  -15.5053   16.0626  -16.9944 C   0  0  0  0  0  0
  -15.5700   17.7941  -16.7365 C   0  0  0  0  0  0
  -17.1020   18.4778  -16.2056 C   0  0  0  0  0  0
  -18.7027   17.2871  -15.7969 C   0  0  0  0  0  0
  -18.4523   15.5222  -16.1201 C   0  0  0  0  0  0
  -16.8810   14.9589  -16.7110 C   0  0  0  0  0  0
  -20.2053   17.3650  -14.4809 S   0  0  0  0  0  0
  -21.4452   17.0190  -15.1502 O   0  0  0  0  0  0
  -19.7534   16.4856  -13.4036 O   0  0  0  0  0  0
  -20.3579   19.0014  -13.6898 C   0  0  0  0  0  0
  -21.4884   19.8630  -13.6851 C   0  0  0  0  0  0
  -22.6605   19.7052  -14.4178 N   0  0  0  0  0  0
  -23.5194   18.5629  -14.5070 C   0  0  0  0  0  0
  -24.4181   18.4582  -13.3451 C   0  0  0  0  0  0
  -23.5826   17.9826  -11.8408 C   0  0  0  0  0  0
  -24.3350   17.9848  -10.3001 C   0  0  0  0  0  0
  -26.0318   18.4649  -10.2003 C   0  0  0  0  0  0
  -27.0580   18.9802  -11.8849 C   0  0  0  0  0  0
  -26.1369   18.9823  -13.4221 C   0  0  0  0  0  0
  -21.3768   21.1079  -12.9656 C   0  0  0  0  0  0
  -20.1723   21.3884  -12.2856 C   0  0  0  0  0  0
  -20.0790   22.5328  -11.5039 C   0  0  0  0  0  0
  -21.1316   23.4427  -11.3891 C   0  0  0  0  0  0
  -22.2886   23.2283  -12.1133 C   0  0  0  0  0  0
  -23.5925   24.3448  -12.0202 Cl  0  0  0  0  0  0
  -22.4060   22.0908  -12.9051 C   0  0  0  0  0  0
  -19.0994   20.5978  -12.3574 N   0  0  0  0  0  0
  -19.2042   19.4379  -13.0465 C   0  0  0  0  0  0
  -22.8492   20.3747  -15.1504 H   0  0  0  0  0  0
  1  2  1  0  0  0
  2  3  1  0  0  0
  3  4  2  0  0  0
  3  8  1  0  0  0
  4  5  1  0  0  0
  5  6  2  0  0  0
  6  7  1  0  0  0
  6  9  1  0  0  0
  7  8  2  0  0  0
  9 10  2  0  0  0
  9 11  2  0  0  0
  9 12  1  0  0  0
 12 13  2  0  0  0
 12 30  1  0  0  0
 13 14  1  0  0  0
 13 22  1  0  0  0
 14 15  1  0  0  0
 14 31  1  0  0  0
 15 16  1  0  0  0
 16 17  2  0  0  0
 16 21  1  0  0  0
 17 18  1  0  0  0
 18 19  2  0  0  0
 19 20  1  0  0  0
 20 21  2  0  0  0
 22 23  2  0  0  0
 22 28  1  0  0  0
 23 24  1  0  0  0
 23 29  1  0  0  0
 24 25  2  0  0  0
 25 26  1  0  0  0
 26 27  1  0  0  0
 26 28  2  0  0  0
 29 30  2  0  0  0
M  END
>  <CHROM.0>
-176.10450713,66.68189755,74.78481615,-58.54221898,-31.11765598,-60.98205306
83.06055471,-162.81623417

>  <CHROM.1>
-115.50257551,136.37499843,122.17870891,51.95080205,79.76989025,-71.54285968
-20.78720548,19.05614208,-13.84911874,-0.68047779,0.36781888,0.33525884

>  <Name>
F1609-0781

>  <RI>
1.90201e+07

>  <Rbt.Current_Directory>
/home/adria/Escritorio/rDock_CMTR_LC/2pxcA_model/inputs_sah

>  <Rbt.Executable>
rbdock ($Id: //depot/dev/client3/rdock/2013.1/src/exe/rbdock.cxx#4 $)

>  <Rbt.Library>
libRbt.so (2013.1, Build901 2013/11/27)

>  <Rbt.Parameter_File>
/home/adria/Escritorio/rDock_2013.1_src/data/scripts/dock.prm

>  <Rbt.Receptor>
sah_rdock.prm

>  <SCORE>
-297.078

>  <SCORE.INTER>
-13.3682

>  <SCORE.INTER.CONST>
1

>  <SCORE.INTER.POLAR>
-1.61519

>  <SCORE.INTER.REPUL>
0.0690846

>  <SCORE.INTER.ROT>
6

>  <SCORE.INTER.VDW>
-19.622

>  <SCORE.INTER.norm>
-0.445607

>  <SCORE.INTRA>
-277.077

>  <SCORE.INTRA.DIHEDRAL>
7.40007

>  <SCORE.INTRA.DIHEDRAL.0>
10.0435

>  <SCORE.INTRA.POLAR>
0

>  <SCORE.INTRA.POLAR.0>
0

>  <SCORE.INTRA.REPUL>
0

>  <SCORE.INTRA.REPUL.0>
0

>  <SCORE.INTRA.VDW>
-280.777

>  <SCORE.INTRA.VDW.0>
279.063

>  <SCORE.INTRA.norm>
-9.23591

>  <SCORE.RESTR>
0

>  <SCORE.RESTR.CAVITY>
0

>  <SCORE.RESTR.norm>
0

>  <SCORE.SYSTEM>
-6.63199

>  <SCORE.SYSTEM.CONST>
0

>  <SCORE.SYSTEM.DIHEDRAL>
5.78722

>  <SCORE.SYSTEM.POLAR>
-3.70117

>  <SCORE.SYSTEM.VDW>
3.05839

>  <SCORE.SYSTEM.norm>
-0.221066

>  <SCORE.heavy>
30

>  <SCORE.norm>
-9.90258

$$$$
