F0660-2491
  rDOCK(R)          3D
libRbt.so/2013.1/901 2013/11/27
 34 38  0  0  0  0  0  0  0  0999 V2000
  -19.3996   25.8828  -10.2150 C   0  0  0  0  0  0
  -20.1469   24.9134   -9.5234 O   0  0  0  0  0  0
  -21.3162   24.7428  -10.2115 C   0  0  0  0  0  0
  -21.4346   24.8068  -11.8839 C   0  0  0  0  0  0
  -20.4493   24.0641  -12.5235 O   0  0  0  0  0  0
  -20.6953   22.7804  -13.1670 C   0  0  0  0  0  0
  -21.3477   21.5593  -12.4876 C   0  0  0  0  0  0
  -21.4669   20.3233  -13.3262 N   0  0  0  0  0  0
  -20.4781   19.7124  -14.2187 C   0  0  0  0  0  0
  -20.9208   18.4421  -14.4303 N   0  0  0  0  0  0
  -22.0019   18.1597  -13.6020 C   0  0  0  0  0  0
  -22.3450   19.2968  -12.8862 C   0  0  0  0  0  0
  -23.4013   19.2945  -11.9503 C   0  0  0  0  0  0
  -24.2518   18.1814  -11.9270 C   0  0  0  0  0  0
  -23.9452   17.0345  -12.6546 C   0  0  0  0  0  0
  -22.7655   16.9737  -13.4214 C   0  0  0  0  0  0
  -18.6093   20.1600  -14.4791 C   0  0  0  0  0  0
  -17.1631   18.5220  -15.2249 C   0  0  0  0  0  0
  -17.4861   18.6712  -17.1216 N   0  0  0  0  0  0
  -18.5151   19.9986  -17.6583 C   0  0  0  0  0  0
  -18.4870   20.4296  -18.8102 O   0  0  0  0  0  0
  -19.1092   21.0762  -16.1517 C   0  0  0  0  0  0
  -16.6046   17.9383  -17.8249 C   0  0  0  0  0  0
  -16.9118   16.6059  -17.8481 C   0  0  0  0  0  0
  -16.0109   15.7850  -18.4562 C   0  0  0  0  0  0
  -16.5312   14.1174  -18.6946 S   0  0  0  0  0  0
  -17.7675   14.4986  -19.9437 C   0  0  0  0  0  0
  -14.8136   16.3257  -18.9603 C   0  0  0  0  0  0
  -14.4596   17.6615  -18.7551 C   0  0  0  0  0  0
  -15.3593   18.4770  -18.1270 C   0  0  0  0  0  0
  -22.8843   24.9773  -12.7149 C   0  0  0  0  0  0
  -24.4415   24.7646  -11.7871 C   0  0  0  0  0  0
  -23.8886   24.5755   -9.8272 C   0  0  0  0  0  0
  -22.4627   24.6495   -9.2404 C   0  0  0  0  0  0
  1  2  1  0  0  0
  2  3  1  0  0  0
  3  4  2  0  0  0
  3 34  1  0  0  0
  4  5  1  0  0  0
  4 31  1  0  0  0
  5  6  1  0  0  0
  6  7  1  0  0  0
  7  8  1  0  0  0
  8  9  1  0  0  0
  8 12  1  0  0  0
  9 10  2  0  0  0
  9 17  1  0  0  0
 10 11  1  0  0  0
 11 12  2  0  0  0
 11 16  1  0  0  0
 12 13  1  0  0  0
 13 14  2  0  0  0
 14 15  1  0  0  0
 15 16  2  0  0  0
 17 18  1  0  0  0
 17 22  1  0  0  0
 18 19  1  0  0  0
 19 20  1  0  0  0
 19 23  1  0  0  0
 20 21  2  0  0  0
 20 22  1  0  0  0
 23 24  2  0  0  0
 23 30  1  0  0  0
 24 25  1  0  0  0
 25 26  1  0  0  0
 25 28  2  0  0  0
 26 27  1  0  0  0
 28 29  1  0  0  0
 29 30  2  0  0  0
 31 32  2  0  0  0
 32 33  1  0  0  0
 33 34  2  0  0  0
M  END
>  <CHROM.0>
-67.25474998,69.10330465,-8.02229813,-60.88096659,-30.11101617,-169.26573766
83.22775033,-165.49149161

>  <CHROM.1>
35.98727422,105.36960046,-54.23923393,-178.20690278,43.94888429,154.10184236
79.02510038,69.47138661,-19.78309606,19.97492012,-14.57518755,-2.16640531
-0.58083564,-2.71374180

>  <Name>
F0660-2491

>  <RI>
3.41917e+07

>  <Rbt.Current_Directory>
/home/adria/Escritorio/rDock_CMTR_LC/2pxcA_model/inputs_sah

>  <Rbt.Executable>
rbdock ($Id: //depot/dev/client3/rdock/2013.1/src/exe/rbdock.cxx#4 $)

>  <Rbt.Library>
libRbt.so (2013.1, Build901 2013/11/27)

>  <Rbt.Parameter_File>
/home/adria/Escritorio/rDock_2013.1_src/data/scripts/dock.prm

>  <Rbt.Receptor>
sah_rdock.prm

>  <SCORE>
-282.851

>  <SCORE.INTER>
-14.0199

>  <SCORE.INTER.CONST>
1

>  <SCORE.INTER.POLAR>
-0.249004

>  <SCORE.INTER.REPUL>
0.245948

>  <SCORE.INTER.ROT>
8

>  <SCORE.INTER.VDW>
-27.8031

>  <SCORE.INTER.norm>
-0.412351

>  <SCORE.INTRA>
-262.41

>  <SCORE.INTRA.DIHEDRAL>
-3.7379

>  <SCORE.INTRA.DIHEDRAL.0>
24.4548

>  <SCORE.INTRA.POLAR>
0

>  <SCORE.INTRA.POLAR.0>
0

>  <SCORE.INTRA.REPUL>
0

>  <SCORE.INTRA.REPUL.0>
0

>  <SCORE.INTRA.VDW>
-260.541

>  <SCORE.INTRA.VDW.0>
259.687

>  <SCORE.INTRA.norm>
-7.71793

>  <SCORE.RESTR>
0

>  <SCORE.RESTR.CAVITY>
0

>  <SCORE.RESTR.norm>
0

>  <SCORE.SYSTEM>
-6.42147

>  <SCORE.SYSTEM.CONST>
0

>  <SCORE.SYSTEM.DIHEDRAL>
9.43789

>  <SCORE.SYSTEM.POLAR>
-4.27921

>  <SCORE.SYSTEM.VDW>
3.4089

>  <SCORE.SYSTEM.norm>
-0.188867

>  <SCORE.heavy>
34

>  <SCORE.norm>
-8.31915

$$$$
F0660-2491
  rDOCK(R)          3D
libRbt.so/2013.1/901 2013/11/27
 34 38  0  0  0  0  0  0  0  0999 V2000
  -16.5646   12.4543  -13.0526 C   0  0  0  0  0  0
  -15.9126   13.0622  -14.1396 O   0  0  0  0  0  0
  -16.6343   12.7582  -15.2606 C   0  0  0  0  0  0
  -18.2640   13.1102  -15.4473 C   0  0  0  0  0  0
  -18.5816   14.4106  -15.0734 O   0  0  0  0  0  0
  -18.2435   15.5846  -15.8670 C   0  0  0  0  0  0
  -18.4120   17.0458  -15.4037 C   0  0  0  0  0  0
  -17.8501   18.0954  -16.3137 N   0  0  0  0  0  0
  -18.2915   19.4783  -16.5139 C   0  0  0  0  0  0
  -17.2490   20.1034  -17.1277 N   0  0  0  0  0  0
  -16.1349   19.2714  -17.1614 C   0  0  0  0  0  0
  -16.4687   18.0309  -16.6390 C   0  0  0  0  0  0
  -15.5209   16.9905  -16.5328 C   0  0  0  0  0  0
  -14.2911   17.1575  -17.1827 C   0  0  0  0  0  0
  -13.9389   18.3850  -17.7377 C   0  0  0  0  0  0
  -14.8149   19.4839  -17.6457 C   0  0  0  0  0  0
  -19.6172   20.5030  -15.5376 C   0  0  0  0  0  0
  -21.7753   19.6938  -15.4021 C   0  0  0  0  0  0
  -21.5593   18.5009  -13.9006 N   0  0  0  0  0  0
  -20.0105   18.5424  -13.0591 C   0  0  0  0  0  0
  -19.8783   18.1441  -11.9026 O   0  0  0  0  0  0
  -18.8156   19.8533  -13.8578 C   0  0  0  0  0  0
  -22.7462   18.0297  -13.4783 C   0  0  0  0  0  0
  -23.7492   18.9562  -13.5537 C   0  0  0  0  0  0
  -24.9588   18.5849  -13.0496 C   0  0  0  0  0  0
  -26.2961   19.6874  -13.3727 S   0  0  0  0  0  0
  -26.5450   19.1635  -15.0749 C   0  0  0  0  0  0
  -25.0950   17.3253  -12.4371 C   0  0  0  0  0  0
  -24.0007   16.4841  -12.2213 C   0  0  0  0  0  0
  -22.7847   16.8703  -12.7125 C   0  0  0  0  0  0
  -19.2418   12.4238  -16.6280 C   0  0  0  0  0  0
  -18.4411   11.4928  -17.9781 C   0  0  0  0  0  0
  -16.4612   11.3945  -17.4751 C   0  0  0  0  0  0
  -15.7862   11.9421  -16.1993 C   0  0  0  0  0  0
  1  2  1  0  0  0
  2  3  1  0  0  0
  3  4  2  0  0  0
  3 34  1  0  0  0
  4  5  1  0  0  0
  4 31  1  0  0  0
  5  6  1  0  0  0
  6  7  1  0  0  0
  7  8  1  0  0  0
  8  9  1  0  0  0
  8 12  1  0  0  0
  9 10  2  0  0  0
  9 17  1  0  0  0
 10 11  1  0  0  0
 11 12  2  0  0  0
 11 16  1  0  0  0
 12 13  1  0  0  0
 13 14  2  0  0  0
 14 15  1  0  0  0
 15 16  2  0  0  0
 17 18  1  0  0  0
 17 22  1  0  0  0
 18 19  1  0  0  0
 19 20  1  0  0  0
 19 23  1  0  0  0
 20 21  2  0  0  0
 20 22  1  0  0  0
 23 24  2  0  0  0
 23 30  1  0  0  0
 24 25  1  0  0  0
 25 26  1  0  0  0
 25 28  2  0  0  0
 26 27  1  0  0  0
 28 29  1  0  0  0
 29 30  2  0  0  0
 31 32  2  0  0  0
 32 33  1  0  0  0
 33 34  2  0  0  0
M  END
>  <CHROM.0>
-177.66694224,-77.56076169,-167.58458721,-63.49379291,167.60051374,-55.91044438
-157.21097703,-161.04420904

>  <CHROM.1>
56.59706781,74.02800058,-171.55957720,172.94873253,150.83626808,-57.34757178
-36.86341360,77.76482028,-19.54289118,16.94390223,-15.04264346,0.38476861
-0.38240463,3.02387660

>  <Name>
F0660-2491

>  <RI>
3.41917e+07

>  <Rbt.Current_Directory>
/home/adria/Escritorio/rDock_CMTR_LC/2pxcA_model/inputs_sah

>  <Rbt.Executable>
rbdock ($Id: //depot/dev/client3/rdock/2013.1/src/exe/rbdock.cxx#4 $)

>  <Rbt.Library>
libRbt.so (2013.1, Build901 2013/11/27)

>  <Rbt.Parameter_File>
/home/adria/Escritorio/rDock_2013.1_src/data/scripts/dock.prm

>  <Rbt.Receptor>
sah_rdock.prm

>  <SCORE>
-276.236

>  <SCORE.INTER>
-10.1406

>  <SCORE.INTER.CONST>
1

>  <SCORE.INTER.POLAR>
-0.822257

>  <SCORE.INTER.REPUL>
0.180315

>  <SCORE.INTER.ROT>
8

>  <SCORE.INTER.VDW>
-21.6465

>  <SCORE.INTER.norm>
-0.298253

>  <SCORE.INTRA>
-264

>  <SCORE.INTRA.DIHEDRAL>
-8.08684

>  <SCORE.INTRA.DIHEDRAL.0>
24.4548

>  <SCORE.INTRA.POLAR>
0

>  <SCORE.INTRA.POLAR.0>
0

>  <SCORE.INTRA.REPUL>
0

>  <SCORE.INTRA.REPUL.0>
0

>  <SCORE.INTRA.VDW>
-259.957

>  <SCORE.INTRA.VDW.0>
259.687

>  <SCORE.INTRA.norm>
-7.76471

>  <SCORE.RESTR>
0.00509855

>  <SCORE.RESTR.CAVITY>
0.00509855

>  <SCORE.RESTR.norm>
0.000149957

>  <SCORE.SYSTEM>
-2.10077

>  <SCORE.SYSTEM.CONST>
0

>  <SCORE.SYSTEM.DIHEDRAL>
4.28846

>  <SCORE.SYSTEM.POLAR>
-3.98641

>  <SCORE.SYSTEM.REPUL>
0.0456431

>  <SCORE.SYSTEM.VDW>
9.08058

>  <SCORE.SYSTEM.norm>
-0.0617875

>  <SCORE.heavy>
34

>  <SCORE.norm>
-8.1246

$$$$
F0660-2491
  rDOCK(R)          3D
libRbt.so/2013.1/901 2013/11/27
 34 38  0  0  0  0  0  0  0  0999 V2000
  -24.6957   23.1771   -8.3242 C   0  0  0  0  0  0
  -25.3319   22.0800   -7.7174 O   0  0  0  0  0  0
  -25.4893   21.1241   -8.6824 C   0  0  0  0  0  0
  -26.5371   21.2736   -9.9842 C   0  0  0  0  0  0
  -26.4403   22.5077  -10.6160 O   0  0  0  0  0  0
  -26.4490   22.6772  -12.0630 C   0  0  0  0  0  0
  -25.4982   21.9627  -13.0445 C   0  0  0  0  0  0
  -24.0447   21.9730  -12.6806 N   0  0  0  0  0  0
  -23.0137   20.9705  -12.9625 C   0  0  0  0  0  0
  -21.8273   21.6113  -12.7722 N   0  0  0  0  0  0
  -22.0361   22.9718  -12.5720 C   0  0  0  0  0  0
  -23.3982   23.2301  -12.5383 C   0  0  0  0  0  0
  -23.9021   24.5371  -12.3657 C   0  0  0  0  0  0
  -22.9996   25.5419  -11.9936 C   0  0  0  0  0  0
  -21.6276   25.3043  -11.9950 C   0  0  0  0  0  0
  -21.1248   24.0465  -12.3806 C   0  0  0  0  0  0
  -23.1082   19.3828  -14.0719 C   0  0  0  0  0  0
  -21.8195   19.2797  -15.9848 C   0  0  0  0  0  0
  -20.1656   18.6632  -15.2047 N   0  0  0  0  0  0
  -20.1989   18.2217  -13.4980 C   0  0  0  0  0  0
  -19.3601   17.4760  -12.9940 O   0  0  0  0  0  0
  -21.9808   18.4489  -12.7515 C   0  0  0  0  0  0
  -19.2745   18.3274  -16.1545 C   0  0  0  0  0  0
  -18.4346   17.3190  -15.7700 C   0  0  0  0  0  0
  -17.4394   16.9917  -16.6406 C   0  0  0  0  0  0
  -16.5224   15.5383  -16.2468 S   0  0  0  0  0  0
  -14.9090   16.3305  -16.3044 C   0  0  0  0  0  0
  -17.2915   17.7291  -17.8299 C   0  0  0  0  0  0
  -18.0588   18.8655  -18.0975 C   0  0  0  0  0  0
  -19.0439   19.2009  -17.2109 C   0  0  0  0  0  0
  -27.0207   19.9875  -10.9504 C   0  0  0  0  0  0
  -26.1283   18.4037  -10.7899 C   0  0  0  0  0  0
  -24.8538   18.6520   -9.2097 C   0  0  0  0  0  0
  -24.7083   19.8939   -8.3044 C   0  0  0  0  0  0
  1  2  1  0  0  0
  2  3  1  0  0  0
  3  4  2  0  0  0
  3 34  1  0  0  0
  4  5  1  0  0  0
  4 31  1  0  0  0
  5  6  1  0  0  0
  6  7  1  0  0  0
  7  8  1  0  0  0
  8  9  1  0  0  0
  8 12  1  0  0  0
  9 10  2  0  0  0
  9 17  1  0  0  0
 10 11  1  0  0  0
 11 12  2  0  0  0
 11 16  1  0  0  0
 12 13  1  0  0  0
 13 14  2  0  0  0
 14 15  1  0  0  0
 15 16  2  0  0  0
 17 18  1  0  0  0
 17 22  1  0  0  0
 18 19  1  0  0  0
 19 20  1  0  0  0
 19 23  1  0  0  0
 20 21  2  0  0  0
 20 22  1  0  0  0
 23 24  2  0  0  0
 23 30  1  0  0  0
 24 25  1  0  0  0
 25 26  1  0  0  0
 25 28  2  0  0  0
 26 27  1  0  0  0
 28 29  1  0  0  0
 29 30  2  0  0  0
 31 32  2  0  0  0
 32 33  1  0  0  0
 33 34  2  0  0  0
M  END
>  <CHROM.0>
-65.67634099,-74.22322793,-8.48661042,-62.64442427,-33.02700888,179.89077195
83.48912398,-163.48348378

>  <CHROM.1>
-68.95854526,137.94220127,-54.27373505,-47.21486178,148.73484170,114.04455670
-148.81770930,-126.12051695,-21.99209524,20.21124746,-13.05027920,-2.78543481
-0.73498088,2.95593077

>  <Name>
F0660-2491

>  <RI>
3.41917e+07

>  <Rbt.Current_Directory>
/home/adria/Escritorio/rDock_CMTR_LC/2pxcA_model/inputs_sah

>  <Rbt.Executable>
rbdock ($Id: //depot/dev/client3/rdock/2013.1/src/exe/rbdock.cxx#4 $)

>  <Rbt.Library>
libRbt.so (2013.1, Build901 2013/11/27)

>  <Rbt.Parameter_File>
/home/adria/Escritorio/rDock_2013.1_src/data/scripts/dock.prm

>  <Rbt.Receptor>
sah_rdock.prm

>  <SCORE>
-287.419

>  <SCORE.INTER>
-13.8903

>  <SCORE.INTER.CONST>
1

>  <SCORE.INTER.POLAR>
-1.62928

>  <SCORE.INTER.REPUL>
0

>  <SCORE.INTER.ROT>
8

>  <SCORE.INTER.VDW>
-21.7507

>  <SCORE.INTER.norm>
-0.408538

>  <SCORE.INTRA>
-266.406

>  <SCORE.INTRA.DIHEDRAL>
-10.9403

>  <SCORE.INTRA.DIHEDRAL.0>
24.4548

>  <SCORE.INTRA.POLAR>
0

>  <SCORE.INTRA.POLAR.0>
0

>  <SCORE.INTRA.REPUL>
0

>  <SCORE.INTRA.REPUL.0>
0

>  <SCORE.INTRA.VDW>
-260.935

>  <SCORE.INTRA.VDW.0>
259.687

>  <SCORE.INTRA.norm>
-7.83546

>  <SCORE.RESTR>
0

>  <SCORE.RESTR.CAVITY>
0

>  <SCORE.RESTR.norm>
0

>  <SCORE.SYSTEM>
-7.12341

>  <SCORE.SYSTEM.CONST>
0

>  <SCORE.SYSTEM.DIHEDRAL>
9.1885

>  <SCORE.SYSTEM.POLAR>
-4.60996

>  <SCORE.SYSTEM.REPUL>
0.0406464

>  <SCORE.SYSTEM.VDW>
3.75295

>  <SCORE.SYSTEM.norm>
-0.209512

>  <SCORE.heavy>
34

>  <SCORE.norm>
-8.45351

$$$$
F0660-2491
  rDOCK(R)          3D
libRbt.so/2013.1/901 2013/11/27
 34 38  0  0  0  0  0  0  0  0999 V2000
  -15.2532   18.1403  -17.8563 C   0  0  0  0  0  0
  -14.6053   16.9850  -17.3853 O   0  0  0  0  0  0
  -15.2917   15.9108  -17.8803 C   0  0  0  0  0  0
  -16.8081   15.4399  -17.3385 C   0  0  0  0  0  0
  -17.6969   16.5030  -17.2308 O   0  0  0  0  0  0
  -19.0388   16.3809  -16.6771 C   0  0  0  0  0  0
  -20.0536   17.5352  -16.5508 C   0  0  0  0  0  0
  -21.2433   17.2752  -15.6778 N   0  0  0  0  0  0
  -21.4047   17.5105  -14.2404 C   0  0  0  0  0  0
  -22.7478   17.4762  -14.0189 N   0  0  0  0  0  0
  -23.4383   17.4190  -15.2249 C   0  0  0  0  0  0
  -22.5333   17.3220  -16.2712 C   0  0  0  0  0  0
  -22.9567   17.2659  -17.6164 C   0  0  0  0  0  0
  -24.3220   17.0737  -17.8647 C   0  0  0  0  0  0
  -25.2513   17.1418  -16.8300 C   0  0  0  0  0  0
  -24.8306   17.4146  -15.5139 C   0  0  0  0  0  0
  -20.2251   18.4220  -13.0001 C   0  0  0  0  0  0
  -20.0888   20.7255  -13.0780 C   0  0  0  0  0  0
  -21.6150   21.1580  -11.9791 N   0  0  0  0  0  0
  -22.4314   19.8173  -11.1761 C   0  0  0  0  0  0
  -23.1379   19.9769  -10.1816 O   0  0  0  0  0  0
  -21.5621   18.1251  -11.5820 C   0  0  0  0  0  0
  -21.6544   22.4723  -11.6959 C   0  0  0  0  0  0
  -22.6372   22.7997  -10.8031 C   0  0  0  0  0  0
  -22.8051   24.1263  -10.5434 C   0  0  0  0  0  0
  -23.8997   24.5162   -9.2174 S   0  0  0  0  0  0
  -25.4093   24.1744  -10.1329 C   0  0  0  0  0  0
  -22.0231   25.0701  -11.2347 C   0  0  0  0  0  0
  -21.1581   24.7014  -12.2680 C   0  0  0  0  0  0
  -21.0076   23.3697  -12.5376 C   0  0  0  0  0  0
  -17.4910   13.9380  -17.6534 C   0  0  0  0  0  0
  -16.6984   12.8748  -18.9072 C   0  0  0  0  0  0
  -14.9703   13.8374  -19.4267 C   0  0  0  0  0  0
  -14.4179   15.1575  -18.8475 C   0  0  0  0  0  0
  1  2  1  0  0  0
  2  3  1  0  0  0
  3  4  2  0  0  0
  3 34  1  0  0  0
  4  5  1  0  0  0
  4 31  1  0  0  0
  5  6  1  0  0  0
  6  7  1  0  0  0
  7  8  1  0  0  0
  8  9  1  0  0  0
  8 12  1  0  0  0
  9 10  2  0  0  0
  9 17  1  0  0  0
 10 11  1  0  0  0
 11 12  2  0  0  0
 11 16  1  0  0  0
 12 13  1  0  0  0
 13 14  2  0  0  0
 14 15  1  0  0  0
 15 16  2  0  0  0
 17 18  1  0  0  0
 17 22  1  0  0  0
 18 19  1  0  0  0
 19 20  1  0  0  0
 19 23  1  0  0  0
 20 21  2  0  0  0
 20 22  1  0  0  0
 23 24  2  0  0  0
 23 30  1  0  0  0
 24 25  1  0  0  0
 25 26  1  0  0  0
 25 28  2  0  0  0
 26 27  1  0  0  0
 28 29  1  0  0  0
 29 30  2  0  0  0
 31 32  2  0  0  0
 32 33  1  0  0  0
 33 34  2  0  0  0
M  END
>  <CHROM.0>
-173.52859492,-167.66451137,-163.49438247,149.28615621,-29.75145139,59.13704521
-156.08321916,-161.42771284

>  <CHROM.1>
-72.33096856,-174.61334741,-179.58300535,-166.45098544,89.59833915,73.95933783
-173.41113870,-75.74715121,-20.69989306,18.99459831,-14.44050723,-1.03304108
0.13134495,0.67685710

>  <Name>
F0660-2491

>  <RI>
3.41917e+07

>  <Rbt.Current_Directory>
/home/adria/Escritorio/rDock_CMTR_LC/2pxcA_model/inputs_sah

>  <Rbt.Executable>
rbdock ($Id: //depot/dev/client3/rdock/2013.1/src/exe/rbdock.cxx#4 $)

>  <Rbt.Library>
libRbt.so (2013.1, Build901 2013/11/27)

>  <Rbt.Parameter_File>
/home/adria/Escritorio/rDock_2013.1_src/data/scripts/dock.prm

>  <Rbt.Receptor>
sah_rdock.prm

>  <SCORE>
-279.299

>  <SCORE.INTER>
-11.0311

>  <SCORE.INTER.CONST>
1

>  <SCORE.INTER.POLAR>
0

>  <SCORE.INTER.REPUL>
0.00132168

>  <SCORE.INTER.ROT>
8

>  <SCORE.INTER.VDW>
-24.4377

>  <SCORE.INTER.norm>
-0.324444

>  <SCORE.INTRA>
-265.676

>  <SCORE.INTRA.DIHEDRAL>
-13.6167

>  <SCORE.INTRA.DIHEDRAL.0>
24.4548

>  <SCORE.INTRA.POLAR>
0

>  <SCORE.INTRA.POLAR.0>
0

>  <SCORE.INTRA.REPUL>
0

>  <SCORE.INTRA.REPUL.0>
0

>  <SCORE.INTRA.VDW>
-258.868

>  <SCORE.INTRA.VDW.0>
259.687

>  <SCORE.INTRA.norm>
-7.814

>  <SCORE.RESTR>
0

>  <SCORE.RESTR.CAVITY>
0

>  <SCORE.RESTR.norm>
0

>  <SCORE.SYSTEM>
-2.59207

>  <SCORE.SYSTEM.CONST>
0

>  <SCORE.SYSTEM.DIHEDRAL>
10.6678

>  <SCORE.SYSTEM.POLAR>
-3.72177

>  <SCORE.SYSTEM.VDW>
4.72808

>  <SCORE.SYSTEM.norm>
-0.0762373

>  <SCORE.heavy>
34

>  <SCORE.norm>
-8.21468

$$$$
F0660-2491
  rDOCK(R)          3D
libRbt.so/2013.1/901 2013/11/27
 34 38  0  0  0  0  0  0  0  0999 V2000
  -18.9971   25.5034  -10.0141 C   0  0  0  0  0  0
  -20.0810   26.3979   -9.9740 O   0  0  0  0  0  0
  -21.2001   25.6864  -10.3076 C   0  0  0  0  0  0
  -21.4787   25.0422  -11.8315 C   0  0  0  0  0  0
  -20.3755   24.3691  -12.3428 O   0  0  0  0  0  0
  -20.3461   22.9328  -12.5843 C   0  0  0  0  0  0
  -21.1611   22.1998  -13.6691 C   0  0  0  0  0  0
  -21.1576   20.7031  -13.5984 N   0  0  0  0  0  0
  -20.0972   19.7623  -13.9696 C   0  0  0  0  0  0
  -20.4324   18.5870  -13.3690 N   0  0  0  0  0  0
  -21.5130   18.7697  -12.5125 C   0  0  0  0  0  0
  -21.9658   20.0767  -12.6121 C   0  0  0  0  0  0
  -23.0469   20.5490  -11.8375 C   0  0  0  0  0  0
  -23.8080   19.6066  -11.1338 C   0  0  0  0  0  0
  -23.3905   18.2818  -11.0369 C   0  0  0  0  0  0
  -22.1866   17.8703  -11.6410 C   0  0  0  0  0  0
  -18.2620   20.1147  -14.4878 C   0  0  0  0  0  0
  -16.9729   18.3723  -15.2834 C   0  0  0  0  0  0
  -17.5247   18.4050  -17.1323 N   0  0  0  0  0  0
  -18.5695   19.7335  -17.6346 C   0  0  0  0  0  0
  -18.6713   20.0835  -18.8096 O   0  0  0  0  0  0
  -18.9367   20.9344  -16.1490 C   0  0  0  0  0  0
  -16.7614   17.5907  -17.8828 C   0  0  0  0  0  0
  -17.4419   16.5034  -18.3572 C   0  0  0  0  0  0
  -16.7111   15.5803  -19.0421 C   0  0  0  0  0  0
  -17.6361   14.3175  -19.8533 S   0  0  0  0  0  0
  -17.0351   12.9728  -18.8216 C   0  0  0  0  0  0
  -15.3207   15.7557  -19.1692 C   0  0  0  0  0  0
  -14.6410   16.7866  -18.5156 C   0  0  0  0  0  0
  -15.3774   17.6997  -17.8134 C   0  0  0  0  0  0
  -22.9795   24.5062  -12.3623 C   0  0  0  0  0  0
  -24.3122   24.3124  -11.1307 C   0  0  0  0  0  0
  -23.5582   25.0674   -9.3859 C   0  0  0  0  0  0
  -22.1752   25.7153   -9.1610 C   0  0  0  0  0  0
  1  2  1  0  0  0
  2  3  1  0  0  0
  3  4  2  0  0  0
  3 34  1  0  0  0
  4  5  1  0  0  0
  4 31  1  0  0  0
  5  6  1  0  0  0
  6  7  1  0  0  0
  7  8  1  0  0  0
  8  9  1  0  0  0
  8 12  1  0  0  0
  9 10  2  0  0  0
  9 17  1  0  0  0
 10 11  1  0  0  0
 11 12  2  0  0  0
 11 16  1  0  0  0
 12 13  1  0  0  0
 13 14  2  0  0  0
 14 15  1  0  0  0
 15 16  2  0  0  0
 17 18  1  0  0  0
 17 22  1  0  0  0
 18 19  1  0  0  0
 19 20  1  0  0  0
 19 23  1  0  0  0
 20 21  2  0  0  0
 20 22  1  0  0  0
 23 24  2  0  0  0
 23 30  1  0  0  0
 24 25  1  0  0  0
 25 26  1  0  0  0
 25 28  2  0  0  0
 26 27  1  0  0  0
 28 29  1  0  0  0
 29 30  2  0  0  0
 31 32  2  0  0  0
 32 33  1  0  0  0
 33 34  2  0  0  0
M  END
>  <CHROM.0>
-61.59931928,67.04101879,-44.95131837,-61.22305037,168.31066754,-172.49723483
-36.69035300,-42.99651709

>  <CHROM.1>
-67.37511964,113.88254899,68.54815378,-170.18716499,-75.28385536,-171.64437648
111.84605320,-113.38856554,-19.71734319,20.12982312,-14.43743376,-2.11559906
-0.66525363,-2.73234913

>  <Name>
F0660-2491

>  <RI>
3.41917e+07

>  <Rbt.Current_Directory>
/home/adria/Escritorio/rDock_CMTR_LC/2pxcA_model/inputs_sah

>  <Rbt.Executable>
rbdock ($Id: //depot/dev/client3/rdock/2013.1/src/exe/rbdock.cxx#4 $)

>  <Rbt.Library>
libRbt.so (2013.1, Build901 2013/11/27)

>  <Rbt.Parameter_File>
/home/adria/Escritorio/rDock_2013.1_src/data/scripts/dock.prm

>  <Rbt.Receptor>
sah_rdock.prm

>  <SCORE>
-281.586

>  <SCORE.INTER>
-18.9535

>  <SCORE.INTER.CONST>
1

>  <SCORE.INTER.POLAR>
-0.938083

>  <SCORE.INTER.REPUL>
0.00230769

>  <SCORE.INTER.ROT>
8

>  <SCORE.INTER.VDW>
-29.1756

>  <SCORE.INTER.norm>
-0.557456

>  <SCORE.INTRA>
-262.962

>  <SCORE.INTRA.DIHEDRAL>
-3.17918

>  <SCORE.INTRA.DIHEDRAL.0>
24.4548

>  <SCORE.INTRA.POLAR>
0

>  <SCORE.INTRA.POLAR.0>
0

>  <SCORE.INTRA.REPUL>
0

>  <SCORE.INTRA.REPUL.0>
0

>  <SCORE.INTRA.VDW>
-261.372

>  <SCORE.INTRA.VDW.0>
259.687

>  <SCORE.INTRA.norm>
-7.73418

>  <SCORE.RESTR>
0

>  <SCORE.RESTR.CAVITY>
0

>  <SCORE.RESTR.norm>
0

>  <SCORE.SYSTEM>
0.32993

>  <SCORE.SYSTEM.CONST>
0

>  <SCORE.SYSTEM.DIHEDRAL>
4.99579

>  <SCORE.SYSTEM.POLAR>
-3.25963

>  <SCORE.SYSTEM.REPUL>
0.0295948

>  <SCORE.SYSTEM.VDW>
8.76678

>  <SCORE.SYSTEM.norm>
0.00970383

>  <SCORE.heavy>
34

>  <SCORE.norm>
-8.28193

$$$$
F0660-2491
  rDOCK(R)          3D
libRbt.so/2013.1/901 2013/11/27
 34 38  0  0  0  0  0  0  0  0999 V2000
  -15.7895   13.6037  -15.9488 C   0  0  0  0  0  0
  -15.1073   14.4277  -16.8610 O   0  0  0  0  0  0
  -15.4171   13.9794  -18.1152 C   0  0  0  0  0  0
  -16.9805   13.6632  -18.6352 C   0  0  0  0  0  0
  -17.8728   14.6782  -18.3110 O   0  0  0  0  0  0
  -17.4864   15.9060  -17.6287 C   0  0  0  0  0  0
  -18.4253   17.0965  -17.3473 C   0  0  0  0  0  0
  -17.8134   18.2662  -16.6383 N   0  0  0  0  0  0
  -18.1089   18.7971  -15.3048 C   0  0  0  0  0  0
  -17.0478   19.5904  -14.9902 N   0  0  0  0  0  0
  -16.0397   19.4527  -15.9386 C   0  0  0  0  0  0
  -16.4741   18.6172  -16.9566 C   0  0  0  0  0  0
  -15.6447   18.2845  -18.0490 C   0  0  0  0  0  0
  -14.4521   19.0024  -18.2069 C   0  0  0  0  0  0
  -14.0031   19.8668  -17.2118 C   0  0  0  0  0  0
  -14.7410   20.0259  -16.0228 C   0  0  0  0  0  0
  -19.2393   18.0658  -13.9092 C   0  0  0  0  0  0
  -20.1455   19.4986  -12.3418 C   0  0  0  0  0  0
  -21.6996   20.0824  -13.3256 N   0  0  0  0  0  0
  -22.0251   19.2801  -14.8616 C   0  0  0  0  0  0
  -23.1416   19.2743  -15.3782 O   0  0  0  0  0  0
  -20.6934   17.9111  -15.2315 C   0  0  0  0  0  0
  -22.5292   20.7983  -12.5457 C   0  0  0  0  0  0
  -23.7361   21.0520  -13.1366 C   0  0  0  0  0  0
  -24.5923   21.8575  -12.4486 C   0  0  0  0  0  0
  -26.2259   21.9761  -13.1010 S   0  0  0  0  0  0
  -26.8619   20.5317  -12.2389 C   0  0  0  0  0  0
  -24.1790   22.4231  -11.2282 C   0  0  0  0  0  0
  -22.8735   22.2823  -10.7507 C   0  0  0  0  0  0
  -22.0122   21.4881  -11.4553 C   0  0  0  0  0  0
  -17.3484   12.7704  -20.0097 C   0  0  0  0  0  0
  -15.9994   12.3891  -21.1782 C   0  0  0  0  0  0
  -14.2879   13.0434  -20.2697 C   0  0  0  0  0  0
  -14.1495   13.6781  -18.8693 C   0  0  0  0  0  0
  1  2  1  0  0  0
  2  3  1  0  0  0
  3  4  2  0  0  0
  3 34  1  0  0  0
  4  5  1  0  0  0
  4 31  1  0  0  0
  5  6  1  0  0  0
  6  7  1  0  0  0
  7  8  1  0  0  0
  8  9  1  0  0  0
  8 12  1  0  0  0
  9 10  2  0  0  0
  9 17  1  0  0  0
 10 11  1  0  0  0
 11 12  2  0  0  0
 11 16  1  0  0  0
 12 13  1  0  0  0
 13 14  2  0  0  0
 14 15  1  0  0  0
 15 16  2  0  0  0
 17 18  1  0  0  0
 17 22  1  0  0  0
 18 19  1  0  0  0
 19 20  1  0  0  0
 19 23  1  0  0  0
 20 21  2  0  0  0
 20 22  1  0  0  0
 23 24  2  0  0  0
 23 30  1  0  0  0
 24 25  1  0  0  0
 25 26  1  0  0  0
 25 28  2  0  0  0
 26 27  1  0  0  0
 28 29  1  0  0  0
 29 30  2  0  0  0
 31 32  2  0  0  0
 32 33  1  0  0  0
 33 34  2  0  0  0
M  END
>  <CHROM.0>
-64.23898372,-172.87729492,111.38370842,64.22824540,167.61978573,179.11770882
-157.02077835,-160.89069543

>  <CHROM.1>
48.62190545,1.78510339,175.17381010,-179.56542276,-114.66242892,-155.40748120
-170.27944529,86.64245412,-19.22658800,18.16182356,-15.61798464,0.77070608
-0.19377619,-2.58878691

>  <Name>
F0660-2491

>  <RI>
3.41917e+07

>  <Rbt.Current_Directory>
/home/adria/Escritorio/rDock_CMTR_LC/2pxcA_model/inputs_sah

>  <Rbt.Executable>
rbdock ($Id: //depot/dev/client3/rdock/2013.1/src/exe/rbdock.cxx#4 $)

>  <Rbt.Library>
libRbt.so (2013.1, Build901 2013/11/27)

>  <Rbt.Parameter_File>
/home/adria/Escritorio/rDock_2013.1_src/data/scripts/dock.prm

>  <Rbt.Receptor>
sah_rdock.prm

>  <SCORE>
-275.793

>  <SCORE.INTER>
-8.58339

>  <SCORE.INTER.CONST>
1

>  <SCORE.INTER.POLAR>
0

>  <SCORE.INTER.REPUL>
0.162979

>  <SCORE.INTER.ROT>
8

>  <SCORE.INTER.VDW>
-22.7983

>  <SCORE.INTER.norm>
-0.252453

>  <SCORE.INTRA>
-265.851

>  <SCORE.INTRA.DIHEDRAL>
-16.0195

>  <SCORE.INTRA.DIHEDRAL.0>
24.4548

>  <SCORE.INTRA.POLAR>
0

>  <SCORE.INTRA.POLAR.0>
0

>  <SCORE.INTRA.REPUL>
0

>  <SCORE.INTRA.REPUL.0>
0

>  <SCORE.INTRA.VDW>
-257.842

>  <SCORE.INTRA.VDW.0>
259.687

>  <SCORE.INTRA.norm>
-7.81916

>  <SCORE.RESTR>
0.0108095

>  <SCORE.RESTR.CAVITY>
0.0108095

>  <SCORE.RESTR.norm>
0.000317926

>  <SCORE.SYSTEM>
-1.36861

>  <SCORE.SYSTEM.CONST>
0

>  <SCORE.SYSTEM.DIHEDRAL>
6.24344

>  <SCORE.SYSTEM.POLAR>
-4.27809

>  <SCORE.SYSTEM.VDW>
10.0552

>  <SCORE.SYSTEM.norm>
-0.0402532

>  <SCORE.heavy>
34

>  <SCORE.norm>
-8.11155

$$$$
F0660-2491
  rDOCK(R)          3D
libRbt.so/2013.1/901 2013/11/27
 34 38  0  0  0  0  0  0  0  0999 V2000
  -18.6964   25.3930  -10.1205 C   0  0  0  0  0  0
  -19.6454   26.4245  -10.2283 O   0  0  0  0  0  0
  -20.8618   25.8310  -10.4239 C   0  0  0  0  0  0
  -21.3523   25.1631  -11.8828 C   0  0  0  0  0  0
  -20.3823   24.3507  -12.4577 O   0  0  0  0  0  0
  -20.6609   23.0388  -13.0266 C   0  0  0  0  0  0
  -21.3482   21.8773  -12.2804 C   0  0  0  0  0  0
  -22.1734   20.9503  -13.1199 N   0  0  0  0  0  0
  -21.8557   19.5996  -13.5913 C   0  0  0  0  0  0
  -23.0480   19.0606  -13.9685 N   0  0  0  0  0  0
  -24.0973   19.8971  -13.6027 C   0  0  0  0  0  0
  -23.5879   21.0624  -13.0496 C   0  0  0  0  0  0
  -24.4315   22.0876  -12.5710 C   0  0  0  0  0  0
  -25.7960   22.0087  -12.8788 C   0  0  0  0  0  0
  -26.3313   20.8604  -13.4565 C   0  0  0  0  0  0
  -25.5060   19.7533  -13.7331 C   0  0  0  0  0  0
  -20.3579   18.4553  -13.1359 C   0  0  0  0  0  0
  -19.7905   16.7366  -14.5695 C   0  0  0  0  0  0
  -18.6881   17.7244  -15.8076 N   0  0  0  0  0  0
  -18.3257   19.4007  -15.3983 C   0  0  0  0  0  0
  -17.3603   19.9999  -15.8699 O   0  0  0  0  0  0
  -19.1414   19.8989  -13.7041 C   0  0  0  0  0  0
  -18.0554   16.8997  -16.6613 C   0  0  0  0  0  0
  -16.9343   17.4556  -17.2130 C   0  0  0  0  0  0
  -16.2955   16.7187  -18.1639 C   0  0  0  0  0  0
  -14.7275   17.3329  -18.6858 S   0  0  0  0  0  0
  -13.9467   17.2089  -17.0706 C   0  0  0  0  0  0
  -16.8413   15.4850  -18.5644 C   0  0  0  0  0  0
  -18.0832   15.0399  -18.1046 C   0  0  0  0  0  0
  -18.7294   15.7930  -17.1642 C   0  0  0  0  0  0
  -22.9460   24.7792  -12.2488 C   0  0  0  0  0  0
  -24.1686   24.7849  -10.8938 C   0  0  0  0  0  0
  -23.1746   25.5178   -9.2637 C   0  0  0  0  0  0
  -21.7143   26.0142   -9.1968 C   0  0  0  0  0  0
  1  2  1  0  0  0
  2  3  1  0  0  0
  3  4  2  0  0  0
  3 34  1  0  0  0
  4  5  1  0  0  0
  4 31  1  0  0  0
  5  6  1  0  0  0
  6  7  1  0  0  0
  7  8  1  0  0  0
  8  9  1  0  0  0
  8 12  1  0  0  0
  9 10  2  0  0  0
  9 17  1  0  0  0
 10 11  1  0  0  0
 11 12  2  0  0  0
 11 16  1  0  0  0
 12 13  1  0  0  0
 13 14  2  0  0  0
 14 15  1  0  0  0
 15 16  2  0  0  0
 17 18  1  0  0  0
 17 22  1  0  0  0
 18 19  1  0  0  0
 19 20  1  0  0  0
 19 23  1  0  0  0
 20 21  2  0  0  0
 20 22  1  0  0  0
 23 24  2  0  0  0
 23 30  1  0  0  0
 24 25  1  0  0  0
 25 26  1  0  0  0
 25 28  2  0  0  0
 26 27  1  0  0  0
 28 29  1  0  0  0
 29 30  2  0  0  0
 31 32  2  0  0  0
 32 33  1  0  0  0
 33 34  2  0  0  0
M  END
>  <CHROM.0>
-62.11709124,66.95106986,-12.21157808,62.15285111,-31.04411053,-174.81048200
-159.13671586,-61.28499515

>  <CHROM.1>
-76.05897652,134.60944708,-55.11992511,148.75237420,103.62977965,-159.23065927
-157.67538165,61.46831397,-20.26481117,20.58188406,-14.05135265,-2.13667602
-0.19328088,-2.55838988

>  <Name>
F0660-2491

>  <RI>
3.41917e+07

>  <Rbt.Current_Directory>
/home/adria/Escritorio/rDock_CMTR_LC/2pxcA_model/inputs_sah

>  <Rbt.Executable>
rbdock ($Id: //depot/dev/client3/rdock/2013.1/src/exe/rbdock.cxx#4 $)

>  <Rbt.Library>
libRbt.so (2013.1, Build901 2013/11/27)

>  <Rbt.Parameter_File>
/home/adria/Escritorio/rDock_2013.1_src/data/scripts/dock.prm

>  <Rbt.Receptor>
sah_rdock.prm

>  <SCORE>
-285.199

>  <SCORE.INTER>
-16.2903

>  <SCORE.INTER.CONST>
1

>  <SCORE.INTER.POLAR>
-0.924359

>  <SCORE.INTER.REPUL>
0.225201

>  <SCORE.INTER.ROT>
8

>  <SCORE.INTER.VDW>
-27.6735

>  <SCORE.INTER.norm>
-0.479127

>  <SCORE.INTRA>
-264.307

>  <SCORE.INTRA.DIHEDRAL>
-8.92244

>  <SCORE.INTRA.DIHEDRAL.0>
24.4548

>  <SCORE.INTRA.POLAR>
0

>  <SCORE.INTRA.POLAR.0>
0

>  <SCORE.INTRA.REPUL>
0

>  <SCORE.INTRA.REPUL.0>
0

>  <SCORE.INTRA.VDW>
-259.846

>  <SCORE.INTRA.VDW.0>
259.687

>  <SCORE.INTRA.norm>
-7.77373

>  <SCORE.RESTR>
0

>  <SCORE.RESTR.CAVITY>
0

>  <SCORE.RESTR.norm>
0

>  <SCORE.SYSTEM>
-4.60231

>  <SCORE.SYSTEM.CONST>
0

>  <SCORE.SYSTEM.DIHEDRAL>
11.6562

>  <SCORE.SYSTEM.POLAR>
-3.87066

>  <SCORE.SYSTEM.VDW>
2.72986

>  <SCORE.SYSTEM.norm>
-0.135362

>  <SCORE.heavy>
34

>  <SCORE.norm>
-8.38822

$$$$
F0660-2491
  rDOCK(R)          3D
libRbt.so/2013.1/901 2013/11/27
 34 38  0  0  0  0  0  0  0  0999 V2000
  -15.2206   15.4756  -18.1390 C   0  0  0  0  0  0
  -15.3743   16.6060  -18.9604 O   0  0  0  0  0  0
  -15.3779   17.7000  -18.1400 C   0  0  0  0  0  0
  -16.6896   18.1594  -17.2001 C   0  0  0  0  0  0
  -17.2502   17.0976  -16.5001 O   0  0  0  0  0  0
  -18.6515   17.0403  -16.1057 C   0  0  0  0  0  0
  -19.3517   18.0498  -15.1737 C   0  0  0  0  0  0
  -20.7784   17.7491  -14.8284 N   0  0  0  0  0  0
  -21.4960   17.9876  -13.5731 C   0  0  0  0  0  0
  -22.8171   17.9021  -13.8921 N   0  0  0  0  0  0
  -22.9794   17.8097  -15.2704 C   0  0  0  0  0  0
  -21.7350   17.7412  -15.8787 C   0  0  0  0  0  0
  -21.5974   17.6595  -17.2809 C   0  0  0  0  0  0
  -22.7502   17.4121  -18.0377 C   0  0  0  0  0  0
  -24.0114   17.4506  -17.4490 C   0  0  0  0  0  0
  -24.1474   17.7486  -16.0793 C   0  0  0  0  0  0
  -20.9256   18.9531  -11.9910 C   0  0  0  0  0  0
  -20.2724   21.1574  -12.2040 C   0  0  0  0  0  0
  -22.0071   21.9985  -12.1191 N   0  0  0  0  0  0
  -23.3835   20.9629  -11.7425 C   0  0  0  0  0  0
  -24.4373   21.4070  -11.2888 O   0  0  0  0  0  0
  -22.8188   19.1218  -11.4675 C   0  0  0  0  0  0
  -21.8959   23.3356  -12.0254 C   0  0  0  0  0  0
  -21.1988   23.7402  -10.9206 C   0  0  0  0  0  0
  -21.1305   25.0830  -10.7030 C   0  0  0  0  0  0
  -20.0314   25.5984   -9.4245 S   0  0  0  0  0  0
  -18.5240   25.2511  -10.3416 C   0  0  0  0  0  0
  -21.8143   25.9587  -11.5666 C   0  0  0  0  0  0
  -22.6611   25.4931  -12.5756 C   0  0  0  0  0  0
  -22.7411   24.1433  -12.7774 C   0  0  0  0  0  0
  -16.8512   19.6746  -16.4935 C   0  0  0  0  0  0
  -15.3965   20.7764  -16.4709 C   0  0  0  0  0  0
  -13.9718   19.8238  -17.5870 C   0  0  0  0  0  0
  -14.1068   18.4819  -18.3381 C   0  0  0  0  0  0
  1  2  1  0  0  0
  2  3  1  0  0  0
  3  4  2  0  0  0
  3 34  1  0  0  0
  4  5  1  0  0  0
  4 31  1  0  0  0
  5  6  1  0  0  0
  6  7  1  0  0  0
  7  8  1  0  0  0
  8  9  1  0  0  0
  8 12  1  0  0  0
  9 10  2  0  0  0
  9 17  1  0  0  0
 10 11  1  0  0  0
 11 12  2  0  0  0
 11 16  1  0  0  0
 12 13  1  0  0  0
 13 14  2  0  0  0
 14 15  1  0  0  0
 15 16  2  0  0  0
 17 18  1  0  0  0
 17 22  1  0  0  0
 18 19  1  0  0  0
 19 20  1  0  0  0
 19 23  1  0  0  0
 20 21  2  0  0  0
 20 22  1  0  0  0
 23 24  2  0  0  0
 23 30  1  0  0  0
 24 25  1  0  0  0
 25 26  1  0  0  0
 25 28  2  0  0  0
 26 27  1  0  0  0
 28 29  1  0  0  0
 29 30  2  0  0  0
 31 32  2  0  0  0
 32 33  1  0  0  0
 33 34  2  0  0  0
M  END
>  <CHROM.0>
-63.57641430,-169.07976102,75.69664963,63.04746763,-28.75247905,179.44202250
-36.73472496,-50.16665695

>  <CHROM.1>
-76.52930236,-152.06239979,-60.91260930,-176.11176835,144.73947176,56.84867671
-59.43916696,72.34834789,-20.08102803,20.20036527,-14.29278131,-1.10073910
0.26457045,0.64995126

>  <Name>
F0660-2491

>  <RI>
3.41917e+07

>  <Rbt.Current_Directory>
/home/adria/Escritorio/rDock_CMTR_LC/2pxcA_model/inputs_sah

>  <Rbt.Executable>
rbdock ($Id: //depot/dev/client3/rdock/2013.1/src/exe/rbdock.cxx#4 $)

>  <Rbt.Library>
libRbt.so (2013.1, Build901 2013/11/27)

>  <Rbt.Parameter_File>
/home/adria/Escritorio/rDock_2013.1_src/data/scripts/dock.prm

>  <Rbt.Receptor>
sah_rdock.prm

>  <SCORE>
-286.561

>  <SCORE.INTER>
-19.4965

>  <SCORE.INTER.CONST>
1

>  <SCORE.INTER.POLAR>
0

>  <SCORE.INTER.REPUL>
0

>  <SCORE.INTER.ROT>
8

>  <SCORE.INTER.VDW>
-32.8965

>  <SCORE.INTER.norm>
-0.573426

>  <SCORE.INTRA>
-262.647

>  <SCORE.INTRA.DIHEDRAL>
-5.29151

>  <SCORE.INTRA.DIHEDRAL.0>
24.4548

>  <SCORE.INTRA.POLAR>
0

>  <SCORE.INTRA.POLAR.0>
0

>  <SCORE.INTRA.REPUL>
0

>  <SCORE.INTRA.REPUL.0>
0

>  <SCORE.INTRA.VDW>
-260.002

>  <SCORE.INTRA.VDW.0>
259.687

>  <SCORE.INTRA.norm>
-7.72492

>  <SCORE.RESTR>
0

>  <SCORE.RESTR.CAVITY>
0

>  <SCORE.RESTR.norm>
0

>  <SCORE.SYSTEM>
-4.41722

>  <SCORE.SYSTEM.CONST>
0

>  <SCORE.SYSTEM.DIHEDRAL>
9.09816

>  <SCORE.SYSTEM.POLAR>
-3.4333

>  <SCORE.SYSTEM.REPUL>
0.0113353

>  <SCORE.SYSTEM.VDW>
2.65023

>  <SCORE.SYSTEM.norm>
-0.129918

>  <SCORE.heavy>
34

>  <SCORE.norm>
-8.42827

$$$$
F0660-2491
  rDOCK(R)          3D
libRbt.so/2013.1/901 2013/11/27
 34 38  0  0  0  0  0  0  0  0999 V2000
  -18.9284   25.7270  -10.1667 C   0  0  0  0  0  0
  -19.7578   24.9684   -9.3221 O   0  0  0  0  0  0
  -20.9674   24.8506   -9.9489 C   0  0  0  0  0  0
  -21.1676   24.9114  -11.6136 C   0  0  0  0  0  0
  -20.2528   24.1189  -12.2965 O   0  0  0  0  0  0
  -20.6013   22.8661  -12.9534 C   0  0  0  0  0  0
  -21.2861   21.6666  -12.2676 C   0  0  0  0  0  0
  -22.1494   20.8106  -13.1434 N   0  0  0  0  0  0
  -21.9422   19.4260  -13.5763 C   0  0  0  0  0  0
  -23.1583   19.0015  -14.0183 N   0  0  0  0  0  0
  -24.1377   19.9456  -13.7285 C   0  0  0  0  0  0
  -23.5471   21.0647  -13.1610 C   0  0  0  0  0  0
  -24.3098   22.1782  -12.7485 C   0  0  0  0  0  0
  -25.6546   22.2300  -13.1378 C   0  0  0  0  0  0
  -26.2678   21.1299  -13.7317 C   0  0  0  0  0  0
  -25.5434   19.9407  -13.9426 C   0  0  0  0  0  0
  -20.5971   18.1468  -13.0152 C   0  0  0  0  0  0
  -19.7761   16.6406  -14.5605 C   0  0  0  0  0  0
  -18.4182   17.7462  -15.3715 N   0  0  0  0  0  0
  -18.1159   19.3180  -14.6320 C   0  0  0  0  0  0
  -17.0610   19.9300  -14.7935 O   0  0  0  0  0  0
  -19.2592   19.5933  -13.0824 C   0  0  0  0  0  0
  -17.6371   17.0297  -16.1994 C   0  0  0  0  0  0
  -16.3926   17.5715  -16.3662 C   0  0  0  0  0  0
  -15.5783   16.9573  -17.2690 C   0  0  0  0  0  0
  -13.9048   17.5116  -17.2946 S   0  0  0  0  0  0
  -14.2630   19.1095  -18.0380 C   0  0  0  0  0  0
  -16.0671   15.8652  -18.0095 C   0  0  0  0  0  0
  -17.4018   15.4587  -17.9370 C   0  0  0  0  0  0
  -18.2200   16.0912  -17.0430 C   0  0  0  0  0  0
  -22.6481   25.1470  -12.3714 C   0  0  0  0  0  0
  -24.1643   25.0141  -11.3644 C   0  0  0  0  0  0
  -23.5220   24.8089   -9.4335 C   0  0  0  0  0  0
  -22.0661   24.8175   -8.9203 C   0  0  0  0  0  0
  1  2  1  0  0  0
  2  3  1  0  0  0
  3  4  2  0  0  0
  3 34  1  0  0  0
  4  5  1  0  0  0
  4 31  1  0  0  0
  5  6  1  0  0  0
  6  7  1  0  0  0
  7  8  1  0  0  0
  8  9  1  0  0  0
  8 12  1  0  0  0
  9 10  2  0  0  0
  9 17  1  0  0  0
 10 11  1  0  0  0
 11 12  2  0  0  0
 11 16  1  0  0  0
 12 13  1  0  0  0
 13 14  2  0  0  0
 14 15  1  0  0  0
 15 16  2  0  0  0
 17 18  1  0  0  0
 17 22  1  0  0  0
 18 19  1  0  0  0
 19 20  1  0  0  0
 19 23  1  0  0  0
 20 21  2  0  0  0
 20 22  1  0  0  0
 23 24  2  0  0  0
 23 30  1  0  0  0
 24 25  1  0  0  0
 25 26  1  0  0  0
 25 28  2  0  0  0
 26 27  1  0  0  0
 28 29  1  0  0  0
 29 30  2  0  0  0
 31 32  2  0  0  0
 32 33  1  0  0  0
 33 34  2  0  0  0
M  END
>  <CHROM.0>
-61.66940797,-71.94810485,-43.66832925,-61.39558929,-31.00304325,-179.24145415
-158.28553697,-167.93389916

>  <CHROM.1>
26.82973276,107.40663962,-55.48671324,150.51780260,112.17321790,-145.53759119
-154.91152135,-71.28089948,-20.11655605,20.55997191,-13.80679603,-2.23681373
-0.12270012,-2.53016447

>  <Name>
F0660-2491

>  <RI>
3.41917e+07

>  <Rbt.Current_Directory>
/home/adria/Escritorio/rDock_CMTR_LC/2pxcA_model/inputs_sah

>  <Rbt.Executable>
rbdock ($Id: //depot/dev/client3/rdock/2013.1/src/exe/rbdock.cxx#4 $)

>  <Rbt.Library>
libRbt.so (2013.1, Build901 2013/11/27)

>  <Rbt.Parameter_File>
/home/adria/Escritorio/rDock_2013.1_src/data/scripts/dock.prm

>  <Rbt.Receptor>
sah_rdock.prm

>  <SCORE>
-284.52

>  <SCORE.INTER>
-13.5401

>  <SCORE.INTER.CONST>
1

>  <SCORE.INTER.POLAR>
0

>  <SCORE.INTER.REPUL>
0.343617

>  <SCORE.INTER.ROT>
8

>  <SCORE.INTER.VDW>
-28.6582

>  <SCORE.INTER.norm>
-0.398238

>  <SCORE.INTRA>
-263.505

>  <SCORE.INTRA.DIHEDRAL>
-9.59083

>  <SCORE.INTRA.DIHEDRAL.0>
24.4548

>  <SCORE.INTRA.POLAR>
0

>  <SCORE.INTRA.POLAR.0>
0

>  <SCORE.INTRA.REPUL>
0

>  <SCORE.INTRA.REPUL.0>
0

>  <SCORE.INTRA.VDW>
-258.709

>  <SCORE.INTRA.VDW.0>
259.687

>  <SCORE.INTRA.norm>
-7.75014

>  <SCORE.RESTR>
0

>  <SCORE.RESTR.CAVITY>
0

>  <SCORE.RESTR.norm>
0

>  <SCORE.SYSTEM>
-7.47558

>  <SCORE.SYSTEM.CONST>
0

>  <SCORE.SYSTEM.DIHEDRAL>
5.98959

>  <SCORE.SYSTEM.POLAR>
-3.98481

>  <SCORE.SYSTEM.REPUL>
0.0366032

>  <SCORE.SYSTEM.VDW>
2.89496

>  <SCORE.SYSTEM.norm>
-0.21987

>  <SCORE.heavy>
34

>  <SCORE.norm>
-8.36825

$$$$
F0660-2491
  rDOCK(R)          3D
libRbt.so/2013.1/901 2013/11/27
 34 38  0  0  0  0  0  0  0  0999 V2000
  -25.2275   23.6391   -8.9147 C   0  0  0  0  0  0
  -25.6689   22.8362   -9.9810 O   0  0  0  0  0  0
  -24.6136   22.6937  -10.8389 C   0  0  0  0  0  0
  -23.0925   22.1633  -10.3698 C   0  0  0  0  0  0
  -23.1405   21.0354   -9.5593 O   0  0  0  0  0  0
  -23.9108   19.8415   -9.8813 C   0  0  0  0  0  0
  -23.5826   18.8559  -11.0211 C   0  0  0  0  0  0
  -23.6251   19.4160  -12.4102 N   0  0  0  0  0  0
  -22.7661   19.1100  -13.5573 C   0  0  0  0  0  0
  -23.4404   19.5740  -14.6456 N   0  0  0  0  0  0
  -24.7221   19.9785  -14.2875 C   0  0  0  0  0  0
  -24.8751   19.8658  -12.9137 C   0  0  0  0  0  0
  -26.0892   20.1926  -12.2726 C   0  0  0  0  0  0
  -27.0669   20.8578  -13.0238 C   0  0  0  0  0  0
  -26.9287   21.0070  -14.4013 C   0  0  0  0  0  0
  -25.8025   20.4811  -15.0634 C   0  0  0  0  0  0
  -21.4102   17.7372  -13.7509 C   0  0  0  0  0  0
  -20.0764   17.7440  -15.6355 C   0  0  0  0  0  0
  -18.7415   19.0127  -15.0591 N   0  0  0  0  0  0
  -18.8248   19.5605  -13.3853 C   0  0  0  0  0  0
  -17.8545   20.0390  -12.7997 O   0  0  0  0  0  0
  -20.3015   18.7127  -12.4447 C   0  0  0  0  0  0
  -17.7094   19.0588  -15.9204 C   0  0  0  0  0  0
  -17.5376   17.8935  -16.6152 C   0  0  0  0  0  0
  -16.4508   17.8285  -17.4337 C   0  0  0  0  0  0
  -16.3767   16.4272  -18.5011 S   0  0  0  0  0  0
  -15.1407   15.5426  -17.5400 C   0  0  0  0  0  0
  -15.5505   18.9092  -17.4742 C   0  0  0  0  0  0
  -15.6677   20.0039  -16.6140 C   0  0  0  0  0  0
  -16.7503   20.0552  -15.7807 C   0  0  0  0  0  0
  -21.7088   22.3395  -11.3057 C   0  0  0  0  0  0
  -21.9040   22.8408  -13.0496 C   0  0  0  0  0  0
  -23.8916   23.2659  -13.2770 C   0  0  0  0  0  0
  -24.9921   23.2259  -12.1953 C   0  0  0  0  0  0
  1  2  1  0  0  0
  2  3  1  0  0  0
  3  4  2  0  0  0
  3 34  1  0  0  0
  4  5  1  0  0  0
  4 31  1  0  0  0
  5  6  1  0  0  0
  6  7  1  0  0  0
  7  8  1  0  0  0
  8  9  1  0  0  0
  8 12  1  0  0  0
  9 10  2  0  0  0
  9 17  1  0  0  0
 10 11  1  0  0  0
 11 12  2  0  0  0
 11 16  1  0  0  0
 12 13  1  0  0  0
 13 14  2  0  0  0
 14 15  1  0  0  0
 15 16  2  0  0  0
 17 18  1  0  0  0
 17 22  1  0  0  0
 18 19  1  0  0  0
 19 20  1  0  0  0
 19 23  1  0  0  0
 20 21  2  0  0  0
 20 22  1  0  0  0
 23 24  2  0  0  0
 23 30  1  0  0  0
 24 25  1  0  0  0
 25 26  1  0  0  0
 25 28  2  0  0  0
 26 27  1  0  0  0
 28 29  1  0  0  0
 29 30  2  0  0  0
 31 32  2  0  0  0
 32 33  1  0  0  0
 33 34  2  0  0  0
M  END
>  <CHROM.0>
-178.12582094,66.32426575,-46.21959959,63.97351473,-30.62022133,-56.75497642
83.87509277,-164.37307795

>  <CHROM.1>
52.85442481,49.56536670,69.52615402,-62.49408388,143.36663993,-172.34805791
-26.51454764,-103.47502189,-21.42299468,19.91043041,-13.71894142,-2.46339884
-0.00363141,-2.19107405

>  <Name>
F0660-2491

>  <RI>
3.41917e+07

>  <Rbt.Current_Directory>
/home/adria/Escritorio/rDock_CMTR_LC/2pxcA_model/inputs_sah

>  <Rbt.Executable>
rbdock ($Id: //depot/dev/client3/rdock/2013.1/src/exe/rbdock.cxx#4 $)

>  <Rbt.Library>
libRbt.so (2013.1, Build901 2013/11/27)

>  <Rbt.Parameter_File>
/home/adria/Escritorio/rDock_2013.1_src/data/scripts/dock.prm

>  <Rbt.Receptor>
sah_rdock.prm

>  <SCORE>
-282.133

>  <SCORE.INTER>
-7.78056

>  <SCORE.INTER.CONST>
1

>  <SCORE.INTER.POLAR>
0

>  <SCORE.INTER.REPUL>
0

>  <SCORE.INTER.ROT>
8

>  <SCORE.INTER.VDW>
-21.1806

>  <SCORE.INTER.norm>
-0.22884

>  <SCORE.INTRA>
-267.681

>  <SCORE.INTRA.DIHEDRAL>
-10.3568

>  <SCORE.INTRA.DIHEDRAL.0>
24.4548

>  <SCORE.INTRA.POLAR>
0

>  <SCORE.INTRA.POLAR.0>
0

>  <SCORE.INTRA.REPUL>
0

>  <SCORE.INTRA.REPUL.0>
0

>  <SCORE.INTRA.VDW>
-262.503

>  <SCORE.INTRA.VDW.0>
259.687

>  <SCORE.INTRA.norm>
-7.87298

>  <SCORE.RESTR>
0

>  <SCORE.RESTR.CAVITY>
0

>  <SCORE.RESTR.norm>
0

>  <SCORE.SYSTEM>
-6.67149

>  <SCORE.SYSTEM.CONST>
0

>  <SCORE.SYSTEM.DIHEDRAL>
5.82916

>  <SCORE.SYSTEM.POLAR>
-3.65284

>  <SCORE.SYSTEM.VDW>
2.83358

>  <SCORE.SYSTEM.norm>
-0.19622

>  <SCORE.heavy>
34

>  <SCORE.norm>
-8.29804

$$$$
F0660-2491
  rDOCK(R)          3D
libRbt.so/2013.1/901 2013/11/27
 34 38  0  0  0  0  0  0  0  0999 V2000
  -23.5464   23.0990   -8.1649 C   0  0  0  0  0  0
  -23.4754   22.2816   -9.3065 O   0  0  0  0  0  0
  -23.4644   23.1114  -10.3933 C   0  0  0  0  0  0
  -22.0892   23.8828  -10.9667 C   0  0  0  0  0  0
  -20.9951   23.0317  -11.0670 O   0  0  0  0  0  0
  -20.8852   21.9709  -12.0594 C   0  0  0  0  0  0
  -21.7233   20.6764  -12.0692 C   0  0  0  0  0  0
  -21.8577   19.9875  -13.3930 N   0  0  0  0  0  0
  -20.8586   19.8141  -14.4509 C   0  0  0  0  0  0
  -21.3430   18.8183  -15.2434 N   0  0  0  0  0  0
  -22.4675   18.2396  -14.6645 C   0  0  0  0  0  0
  -22.7936   18.9244  -13.5035 C   0  0  0  0  0  0
  -23.8866   18.5407  -12.6973 C   0  0  0  0  0  0
  -24.7814   17.5955  -13.2156 C   0  0  0  0  0  0
  -24.4917   16.9096  -14.3923 C   0  0  0  0  0  0
  -23.2849   17.1515  -15.0769 C   0  0  0  0  0  0
  -18.9642   20.2285  -14.4377 C   0  0  0  0  0  0
  -17.4571   18.5789  -15.0192 C   0  0  0  0  0  0
  -17.5105   18.7805  -16.9377 N   0  0  0  0  0  0
  -18.4315   20.1416  -17.5762 C   0  0  0  0  0  0
  -18.2358   20.5995  -18.7012 O   0  0  0  0  0  0
  -19.2105   21.1949  -16.1383 C   0  0  0  0  0  0
  -16.5525   18.0464  -17.5314 C   0  0  0  0  0  0
  -16.6836   16.7049  -17.3001 C   0  0  0  0  0  0
  -15.6935   15.9049  -17.7850 C   0  0  0  0  0  0
  -15.9956   14.1702  -17.6960 S   0  0  0  0  0  0
  -16.1827   13.9358  -19.4691 C   0  0  0  0  0  0
  -14.5854   16.4887  -18.4265 C   0  0  0  0  0  0
  -14.4054   17.8730  -18.4814 C   0  0  0  0  0  0
  -15.3933   18.6715  -17.9760 C   0  0  0  0  0  0
  -22.1180   25.1748  -12.0397 C   0  0  0  0  0  0
  -23.6911   25.5657  -12.8784 C   0  0  0  0  0  0
  -25.0863   24.3392  -12.0228 C   0  0  0  0  0  0
  -24.8743   23.3310  -10.8731 C   0  0  0  0  0  0
  1  2  1  0  0  0
  2  3  1  0  0  0
  3  4  2  0  0  0
  3 34  1  0  0  0
  4  5  1  0  0  0
  4 31  1  0  0  0
  5  6  1  0  0  0
  6  7  1  0  0  0
  7  8  1  0  0  0
  8  9  1  0  0  0
  8 12  1  0  0  0
  9 10  2  0  0  0
  9 17  1  0  0  0
 10 11  1  0  0  0
 11 12  2  0  0  0
 11 16  1  0  0  0
 12 13  1  0  0  0
 13 14  2  0  0  0
 14 15  1  0  0  0
 15 16  2  0  0  0
 17 18  1  0  0  0
 17 22  1  0  0  0
 18 19  1  0  0  0
 19 20  1  0  0  0
 19 23  1  0  0  0
 20 21  2  0  0  0
 20 22  1  0  0  0
 23 24  2  0  0  0
 23 30  1  0  0  0
 24 25  1  0  0  0
 25 26  1  0  0  0
 25 28  2  0  0  0
 26 27  1  0  0  0
 28 29  1  0  0  0
 29 30  2  0  0  0
 31 32  2  0  0  0
 32 33  1  0  0  0
 33 34  2  0  0  0
M  END
>  <CHROM.0>
177.51392893,63.08643114,-134.79310722,-60.73270836,168.11125506,-57.01736045
-36.68955213,-162.64722506

>  <CHROM.1>
81.91187225,70.53683675,-70.09463394,157.09570421,38.58529820,126.73631259
61.43159709,110.24141741,-20.20760986,19.62304648,-14.56276942,-2.36097313
-0.52601296,-2.78485093

>  <Name>
F0660-2491

>  <RI>
3.41917e+07

>  <Rbt.Current_Directory>
/home/adria/Escritorio/rDock_CMTR_LC/2pxcA_model/inputs_sah

>  <Rbt.Executable>
rbdock ($Id: //depot/dev/client3/rdock/2013.1/src/exe/rbdock.cxx#4 $)

>  <Rbt.Library>
libRbt.so (2013.1, Build901 2013/11/27)

>  <Rbt.Parameter_File>
/home/adria/Escritorio/rDock_2013.1_src/data/scripts/dock.prm

>  <Rbt.Receptor>
sah_rdock.prm

>  <SCORE>
-272.351

>  <SCORE.INTER>
-10.0377

>  <SCORE.INTER.CONST>
1

>  <SCORE.INTER.POLAR>
-0.324089

>  <SCORE.INTER.REPUL>
0.040312

>  <SCORE.INTER.ROT>
8

>  <SCORE.INTER.VDW>
-22.5374

>  <SCORE.INTER.norm>
-0.295226

>  <SCORE.INTRA>
-261.281

>  <SCORE.INTRA.DIHEDRAL>
0.337688

>  <SCORE.INTRA.DIHEDRAL.0>
24.4548

>  <SCORE.INTRA.POLAR>
0

>  <SCORE.INTRA.POLAR.0>
0

>  <SCORE.INTRA.REPUL>
0

>  <SCORE.INTRA.REPUL.0>
0

>  <SCORE.INTRA.VDW>
-261.45

>  <SCORE.INTRA.VDW.0>
259.687

>  <SCORE.INTRA.norm>
-7.68474

>  <SCORE.RESTR>
0

>  <SCORE.RESTR.CAVITY>
0

>  <SCORE.RESTR.norm>
0

>  <SCORE.SYSTEM>
-1.03208

>  <SCORE.SYSTEM.CONST>
0

>  <SCORE.SYSTEM.DIHEDRAL>
5.47332

>  <SCORE.SYSTEM.POLAR>
-3.98435

>  <SCORE.SYSTEM.VDW>
9.77806

>  <SCORE.SYSTEM.norm>
-0.0303553

>  <SCORE.heavy>
34

>  <SCORE.norm>
-8.01032

$$$$
F0660-2491
  rDOCK(R)          3D
libRbt.so/2013.1/901 2013/11/27
 34 38  0  0  0  0  0  0  0  0999 V2000
  -16.9284   12.5241  -12.9361 C   0  0  0  0  0  0
  -16.0063   13.1485  -13.7941 O   0  0  0  0  0  0
  -16.5297   13.0895  -15.0560 C   0  0  0  0  0  0
  -17.9544   13.8482  -15.5136 C   0  0  0  0  0  0
  -18.0263   15.1673  -15.0817 O   0  0  0  0  0  0
  -18.9300   16.1564  -15.6538 C   0  0  0  0  0  0
  -18.9142   16.6265  -17.1224 C   0  0  0  0  0  0
  -17.8987   17.6722  -17.4695 N   0  0  0  0  0  0
  -18.0444   19.1301  -17.4954 C   0  0  0  0  0  0
  -16.7734   19.6188  -17.4913 N   0  0  0  0  0  0
  -15.8584   18.5921  -17.2836 C   0  0  0  0  0  0
  -16.5281   17.3786  -17.2381 C   0  0  0  0  0  0
  -15.8467   16.1622  -17.0191 C   0  0  0  0  0  0
  -14.4472   16.1763  -17.0817 C   0  0  0  0  0  0
  -13.7487   17.3788  -17.1521 C   0  0  0  0  0  0
  -14.4424   18.6044  -17.1528 C   0  0  0  0  0  0
  -19.5249   20.2321  -16.9000 C   0  0  0  0  0  0
  -21.3202   19.2210  -15.8583 C   0  0  0  0  0  0
  -20.6249   19.1445  -14.0598 N   0  0  0  0  0  0
  -19.0919   19.9611  -13.7566 C   0  0  0  0  0  0
  -18.7449   20.3138  -12.6302 O   0  0  0  0  0  0
  -18.4204   20.8104  -15.3727 C   0  0  0  0  0  0
  -21.5737   18.7617  -13.1867 C   0  0  0  0  0  0
  -21.4884   19.4072  -11.9841 C   0  0  0  0  0  0
  -22.3530   19.0006  -11.0133 C   0  0  0  0  0  0
  -22.3998   19.9982   -9.5603 S   0  0  0  0  0  0
  -23.6694   21.1207  -10.1619 C   0  0  0  0  0  0
  -23.2232   17.9248  -11.2693 C   0  0  0  0  0  0
  -23.1518   17.1784  -12.4481 C   0  0  0  0  0  0
  -22.2686   17.5791  -13.4117 C   0  0  0  0  0  0
  -18.7988   13.4867  -16.9199 C   0  0  0  0  0  0
  -17.9778   12.4500  -18.1776 C   0  0  0  0  0  0
  -16.2267   11.8335  -17.3196 C   0  0  0  0  0  0
  -15.7222   12.1324  -15.8915 C   0  0  0  0  0  0
  1  2  1  0  0  0
  2  3  1  0  0  0
  3  4  2  0  0  0
  3 34  1  0  0  0
  4  5  1  0  0  0
  4 31  1  0  0  0
  5  6  1  0  0  0
  6  7  1  0  0  0
  7  8  1  0  0  0
  8  9  1  0  0  0
  8 12  1  0  0  0
  9 10  2  0  0  0
  9 17  1  0  0  0
 10 11  1  0  0  0
 11 12  2  0  0  0
 11 16  1  0  0  0
 12 13  1  0  0  0
 13 14  2  0  0  0
 14 15  1  0  0  0
 15 16  2  0  0  0
 17 18  1  0  0  0
 17 22  1  0  0  0
 18 19  1  0  0  0
 19 20  1  0  0  0
 19 23  1  0  0  0
 20 21  2  0  0  0
 20 22  1  0  0  0
 23 24  2  0  0  0
 23 30  1  0  0  0
 24 25  1  0  0  0
 25 26  1  0  0  0
 25 28  2  0  0  0
 26 27  1  0  0  0
 28 29  1  0  0  0
 29 30  2  0  0  0
 31 32  2  0  0  0
 32 33  1  0  0  0
 33 34  2  0  0  0
M  END
>  <CHROM.0>
-61.88904779,-76.47985684,-42.07166240,62.91141849,-31.19625960,-54.88426835
-158.99204673,-49.28132428

>  <CHROM.1>
63.60514974,161.10694733,-61.43241586,-81.50140904,-93.39782331,4.46471099
-142.61382194,88.81826512,-18.78486499,17.22297293,-14.75839756,0.40934202
-0.79237726,2.93114674

>  <Name>
F0660-2491

>  <RI>
3.41917e+07

>  <Rbt.Current_Directory>
/home/adria/Escritorio/rDock_CMTR_LC/2pxcA_model/inputs_sah

>  <Rbt.Executable>
rbdock ($Id: //depot/dev/client3/rdock/2013.1/src/exe/rbdock.cxx#4 $)

>  <Rbt.Library>
libRbt.so (2013.1, Build901 2013/11/27)

>  <Rbt.Parameter_File>
/home/adria/Escritorio/rDock_2013.1_src/data/scripts/dock.prm

>  <Rbt.Receptor>
sah_rdock.prm

>  <SCORE>
-289.757

>  <SCORE.INTER>
-17.3059

>  <SCORE.INTER.CONST>
1

>  <SCORE.INTER.POLAR>
-0.836498

>  <SCORE.INTER.REPUL>
0

>  <SCORE.INTER.ROT>
8

>  <SCORE.INTER.VDW>
-27.8618

>  <SCORE.INTER.norm>
-0.508997

>  <SCORE.INTRA>
-266.951

>  <SCORE.INTRA.DIHEDRAL>
-9.84458

>  <SCORE.INTRA.DIHEDRAL.0>
24.4548

>  <SCORE.INTRA.POLAR>
0

>  <SCORE.INTRA.POLAR.0>
0

>  <SCORE.INTRA.REPUL>
0

>  <SCORE.INTRA.REPUL.0>
0

>  <SCORE.INTRA.VDW>
-262.028

>  <SCORE.INTRA.VDW.0>
259.687

>  <SCORE.INTRA.norm>
-7.85149

>  <SCORE.RESTR>
0

>  <SCORE.RESTR.CAVITY>
0

>  <SCORE.RESTR.norm>
0

>  <SCORE.SYSTEM>
-5.50029

>  <SCORE.SYSTEM.CONST>
0

>  <SCORE.SYSTEM.DIHEDRAL>
9.23277

>  <SCORE.SYSTEM.POLAR>
-3.70677

>  <SCORE.SYSTEM.REPUL>
0.0577471

>  <SCORE.SYSTEM.VDW>
2.19761

>  <SCORE.SYSTEM.norm>
-0.161773

>  <SCORE.heavy>
34

>  <SCORE.norm>
-8.52226

$$$$
F0660-2491
  rDOCK(R)          3D
libRbt.so/2013.1/901 2013/11/27
 34 38  0  0  0  0  0  0  0  0999 V2000
  -24.2020   23.9607  -13.4840 C   0  0  0  0  0  0
  -23.3348   25.0415  -13.7210 O   0  0  0  0  0  0
  -22.3247   24.9533  -12.8035 C   0  0  0  0  0  0
  -21.4316   23.5602  -12.5273 C   0  0  0  0  0  0
  -20.9975   22.9557  -13.7011 O   0  0  0  0  0  0
  -20.1483   21.7724  -13.7341 C   0  0  0  0  0  0
  -20.5289   20.3923  -13.1608 C   0  0  0  0  0  0
  -21.2728   19.4766  -14.0846 N   0  0  0  0  0  0
  -20.8413   18.2052  -14.6716 C   0  0  0  0  0  0
  -21.9834   17.6021  -15.1030 N   0  0  0  0  0  0
  -23.1000   18.3103  -14.6715 C   0  0  0  0  0  0
  -22.6916   19.4610  -14.0140 C   0  0  0  0  0  0
  -23.6193   20.3641  -13.4521 C   0  0  0  0  0  0
  -24.9723   20.1967  -13.7746 C   0  0  0  0  0  0
  -25.4081   19.0629  -14.4553 C   0  0  0  0  0  0
  -24.4914   18.0591  -14.8234 C   0  0  0  0  0  0
  -19.2506   17.1567  -14.3095 C   0  0  0  0  0  0
  -18.5329   15.6354  -15.8910 C   0  0  0  0  0  0
  -17.5179   16.8263  -17.0204 N   0  0  0  0  0  0
  -17.3034   18.4818  -16.4530 C   0  0  0  0  0  0
  -16.3927   19.2037  -16.8568 O   0  0  0  0  0  0
  -18.1629   18.7468  -14.7282 C   0  0  0  0  0  0
  -16.8141   16.1429  -17.9406 C   0  0  0  0  0  0
  -17.5253   15.1246  -18.5128 C   0  0  0  0  0  0
  -16.8479   14.3235  -19.3816 C   0  0  0  0  0  0
  -17.8292   13.1762  -20.2921 S   0  0  0  0  0  0
  -17.9468   11.9621  -18.9707 C   0  0  0  0  0  0
  -15.4735   14.5396  -19.5927 C   0  0  0  0  0  0
  -14.7483   15.4761  -18.8518 C   0  0  0  0  0  0
  -15.4297   16.2646  -17.9670 C   0  0  0  0  0  0
  -20.4663   23.3187  -11.1740 C   0  0  0  0  0  0
  -20.1089   24.7515  -10.1016 C   0  0  0  0  0  0
  -21.2583   26.2789  -10.8289 C   0  0  0  0  0  0
  -22.2598   26.2263  -12.0026 C   0  0  0  0  0  0
  1  2  1  0  0  0
  2  3  1  0  0  0
  3  4  2  0  0  0
  3 34  1  0  0  0
  4  5  1  0  0  0
  4 31  1  0  0  0
  5  6  1  0  0  0
  6  7  1  0  0  0
  7  8  1  0  0  0
  8  9  1  0  0  0
  8 12  1  0  0  0
  9 10  2  0  0  0
  9 17  1  0  0  0
 10 11  1  0  0  0
 11 12  2  0  0  0
 11 16  1  0  0  0
 12 13  1  0  0  0
 13 14  2  0  0  0
 14 15  1  0  0  0
 15 16  2  0  0  0
 17 18  1  0  0  0
 17 22  1  0  0  0
 18 19  1  0  0  0
 19 20  1  0  0  0
 19 23  1  0  0  0
 20 21  2  0  0  0
 20 22  1  0  0  0
 23 24  2  0  0  0
 23 30  1  0  0  0
 24 25  1  0  0  0
 25 26  1  0  0  0
 25 28  2  0  0  0
 26 27  1  0  0  0
 28 29  1  0  0  0
 29 30  2  0  0  0
 31 32  2  0  0  0
 32 33  1  0  0  0
 33 34  2  0  0  0
M  END
>  <CHROM.0>
-61.33893460,-169.19607084,-162.95791759,58.76063556,-31.43014389,-66.47464666
-157.04203659,-170.43450443

>  <CHROM.1>
50.86841609,176.78570455,61.94133716,87.50390227,113.43984579,-158.88690926
42.67760032,-80.61971282,-20.06298051,19.11552624,-15.29471576,2.03362572
0.18349955,0.51320378

>  <Name>
F0660-2491

>  <RI>
3.41917e+07

>  <Rbt.Current_Directory>
/home/adria/Escritorio/rDock_CMTR_LC/2pxcA_model/inputs_sah

>  <Rbt.Executable>
rbdock ($Id: //depot/dev/client3/rdock/2013.1/src/exe/rbdock.cxx#4 $)

>  <Rbt.Library>
libRbt.so (2013.1, Build901 2013/11/27)

>  <Rbt.Parameter_File>
/home/adria/Escritorio/rDock_2013.1_src/data/scripts/dock.prm

>  <Rbt.Receptor>
sah_rdock.prm

>  <SCORE>
-287.268

>  <SCORE.INTER>
-16.9203

>  <SCORE.INTER.CONST>
1

>  <SCORE.INTER.POLAR>
-0.894427

>  <SCORE.INTER.REPUL>
0

>  <SCORE.INTER.ROT>
8

>  <SCORE.INTER.VDW>
-27.2793

>  <SCORE.INTER.norm>
-0.497656

>  <SCORE.INTRA>
-264.201

>  <SCORE.INTRA.DIHEDRAL>
-7.89835

>  <SCORE.INTRA.DIHEDRAL.0>
24.4548

>  <SCORE.INTRA.POLAR>
0

>  <SCORE.INTRA.POLAR.0>
0

>  <SCORE.INTRA.REPUL>
0

>  <SCORE.INTRA.REPUL.0>
0

>  <SCORE.INTRA.VDW>
-260.252

>  <SCORE.INTRA.VDW.0>
259.687

>  <SCORE.INTRA.norm>
-7.77062

>  <SCORE.RESTR>
0

>  <SCORE.RESTR.CAVITY>
0

>  <SCORE.RESTR.norm>
0

>  <SCORE.SYSTEM>
-6.14677

>  <SCORE.SYSTEM.CONST>
0

>  <SCORE.SYSTEM.DIHEDRAL>
5.9639

>  <SCORE.SYSTEM.POLAR>
-3.65802

>  <SCORE.SYSTEM.VDW>
3.30856

>  <SCORE.SYSTEM.norm>
-0.180787

>  <SCORE.heavy>
34

>  <SCORE.norm>
-8.44906

$$$$
F0660-2491
  rDOCK(R)          3D
libRbt.so/2013.1/901 2013/11/27
 34 38  0  0  0  0  0  0  0  0999 V2000
  -17.8938   19.6358  -14.4619 C   0  0  0  0  0  0
  -17.9171   20.2579  -15.7224 O   0  0  0  0  0  0
  -16.9159   19.6957  -16.4651 C   0  0  0  0  0  0
  -16.9779   18.1413  -17.0935 C   0  0  0  0  0  0
  -18.1856   17.8608  -17.7213 O   0  0  0  0  0  0
  -19.4091   17.5244  -17.0055 C   0  0  0  0  0  0
  -20.2819   18.5264  -16.2230 C   0  0  0  0  0  0
  -21.4062   17.9394  -15.4251 N   0  0  0  0  0  0
  -21.7201   18.1117  -14.0042 C   0  0  0  0  0  0
  -23.0119   17.7026  -13.8690 N   0  0  0  0  0  0
  -23.5788   17.4622  -15.1162 C   0  0  0  0  0  0
  -22.6164   17.6278  -16.1008 C   0  0  0  0  0  0
  -22.9187   17.4639  -17.4696 C   0  0  0  0  0  0
  -24.1570   16.8997  -17.8028 C   0  0  0  0  0  0
  -25.1339   16.6995  -16.8309 C   0  0  0  0  0  0
  -24.8927   17.0710  -15.4940 C   0  0  0  0  0  0
  -20.9251   19.3087  -12.7021 C   0  0  0  0  0  0
  -20.7758   21.5584  -13.1996 C   0  0  0  0  0  0
  -22.5445   22.1080  -12.6579 N   0  0  0  0  0  0
  -23.5474   20.9030  -11.8510 C   0  0  0  0  0  0
  -24.4987   21.2108  -11.1343 O   0  0  0  0  0  0
  -22.5980   19.2156  -11.6630 C   0  0  0  0  0  0
  -22.6615   23.4479  -12.6643 C   0  0  0  0  0  0
  -21.8626   24.0608  -11.7389 C   0  0  0  0  0  0
  -21.9999   25.4104  -11.6161 C   0  0  0  0  0  0
  -20.8011   26.2148  -10.6040 S   0  0  0  0  0  0
  -21.8709   26.3822   -9.1683 C   0  0  0  0  0  0
  -22.9737   26.0784  -12.3813 C   0  0  0  0  0  0
  -23.8893   25.3893  -13.1805 C   0  0  0  0  0  0
  -23.7591   24.0324  -13.2853 C   0  0  0  0  0  0
  -15.6374   17.3095  -17.6702 C   0  0  0  0  0  0
  -14.0888   18.2402  -17.9279 C   0  0  0  0  0  0
  -14.4428   20.1092  -17.1766 C   0  0  0  0  0  0
  -15.7267   20.6185  -16.4870 C   0  0  0  0  0  0
  1  2  1  0  0  0
  2  3  1  0  0  0
  3  4  2  0  0  0
  3 34  1  0  0  0
  4  5  1  0  0  0
  4 31  1  0  0  0
  5  6  1  0  0  0
  6  7  1  0  0  0
  7  8  1  0  0  0
  8  9  1  0  0  0
  8 12  1  0  0  0
  9 10  2  0  0  0
  9 17  1  0  0  0
 10 11  1  0  0  0
 11 12  2  0  0  0
 11 16  1  0  0  0
 12 13  1  0  0  0
 13 14  2  0  0  0
 14 15  1  0  0  0
 15 16  2  0  0  0
 17 18  1  0  0  0
 17 22  1  0  0  0
 18 19  1  0  0  0
 19 20  1  0  0  0
 19 23  1  0  0  0
 20 21  2  0  0  0
 20 22  1  0  0  0
 23 24  2  0  0  0
 23 30  1  0  0  0
 24 25  1  0  0  0
 25 26  1  0  0  0
 25 28  2  0  0  0
 26 27  1  0  0  0
 28 29  1  0  0  0
 29 30  2  0  0  0
 31 32  2  0  0  0
 32 33  1  0  0  0
 33 34  2  0  0  0
M  END
>  <CHROM.0>
-61.51040419,67.14819729,-10.93948927,63.49588441,-28.77112002,54.42618400
82.56168158,-165.14996505

>  <CHROM.1>
72.65192266,-78.38623170,74.05542816,-172.91359893,126.24559615,52.04543466
-65.16991429,-101.73845102,-20.90396414,20.53900529,-14.35169152,-1.12866794
0.26242312,0.57677005

>  <Name>
F0660-2491

>  <RI>
3.41917e+07

>  <Rbt.Current_Directory>
/home/adria/Escritorio/rDock_CMTR_LC/2pxcA_model/inputs_sah

>  <Rbt.Executable>
rbdock ($Id: //depot/dev/client3/rdock/2013.1/src/exe/rbdock.cxx#4 $)

>  <Rbt.Library>
libRbt.so (2013.1, Build901 2013/11/27)

>  <Rbt.Parameter_File>
/home/adria/Escritorio/rDock_2013.1_src/data/scripts/dock.prm

>  <Rbt.Receptor>
sah_rdock.prm

>  <SCORE>
-285.745

>  <SCORE.INTER>
-18.0187

>  <SCORE.INTER.CONST>
1

>  <SCORE.INTER.POLAR>
0

>  <SCORE.INTER.REPUL>
0.0132094

>  <SCORE.INTER.ROT>
8

>  <SCORE.INTER.VDW>
-31.4848

>  <SCORE.INTER.norm>
-0.529962

>  <SCORE.INTRA>
-260.919

>  <SCORE.INTRA.DIHEDRAL>
-0.279921

>  <SCORE.INTRA.DIHEDRAL.0>
24.4548

>  <SCORE.INTRA.POLAR>
0

>  <SCORE.INTRA.POLAR.0>
0

>  <SCORE.INTRA.REPUL>
0

>  <SCORE.INTRA.REPUL.0>
0

>  <SCORE.INTRA.VDW>
-260.779

>  <SCORE.INTRA.VDW.0>
259.687

>  <SCORE.INTRA.norm>
-7.67409

>  <SCORE.RESTR>
0

>  <SCORE.RESTR.CAVITY>
0

>  <SCORE.RESTR.norm>
0

>  <SCORE.SYSTEM>
-6.80687

>  <SCORE.SYSTEM.CONST>
0

>  <SCORE.SYSTEM.DIHEDRAL>
8.97244

>  <SCORE.SYSTEM.POLAR>
-4.24279

>  <SCORE.SYSTEM.VDW>
3.13241

>  <SCORE.SYSTEM.norm>
-0.200202

>  <SCORE.heavy>
34

>  <SCORE.norm>
-8.40425

$$$$
F0660-2491
  rDOCK(R)          3D
libRbt.so/2013.1/901 2013/11/27
 34 38  0  0  0  0  0  0  0  0999 V2000
  -25.1497   20.3007   -8.5988 C   0  0  0  0  0  0
  -24.1449   21.1351   -8.0786 O   0  0  0  0  0  0
  -23.4840   21.6791   -9.1450 C   0  0  0  0  0  0
  -22.5198   20.7962  -10.1965 C   0  0  0  0  0  0
  -23.1231   19.6188  -10.6223 O   0  0  0  0  0  0
  -22.3999   18.5232  -11.2540 C   0  0  0  0  0  0
  -22.7629   17.8882  -12.6117 C   0  0  0  0  0  0
  -22.5262   18.7390  -13.8222 N   0  0  0  0  0  0
  -21.2585   19.1971  -14.3970 C   0  0  0  0  0  0
  -21.5608   19.5948  -15.6639 N   0  0  0  0  0  0
  -22.8715   19.2538  -15.9808 C   0  0  0  0  0  0
  -23.4857   18.6968  -14.8692 C   0  0  0  0  0  0
  -24.8204   18.2400  -14.9092 C   0  0  0  0  0  0
  -25.5924   18.5739  -16.0296 C   0  0  0  0  0  0
  -25.0072   19.1561  -17.1509 C   0  0  0  0  0  0
  -23.6224   19.4109  -17.1781 C   0  0  0  0  0  0
  -19.4424   18.7068  -13.9259 C   0  0  0  0  0  0
  -18.3611   17.0959  -15.1776 C   0  0  0  0  0  0
  -17.7116   18.2107  -16.6126 N   0  0  0  0  0  0
  -17.9404   19.9508  -16.4436 C   0  0  0  0  0  0
  -17.2592   20.7678  -17.0615 O   0  0  0  0  0  0
  -18.8221   20.3802  -14.7636 C   0  0  0  0  0  0
  -16.8604   17.5363  -17.4062 C   0  0  0  0  0  0
  -17.1226   16.1951  -17.4574 C   0  0  0  0  0  0
  -16.2421   15.4301  -18.1607 C   0  0  0  0  0  0
  -16.7212   13.7538  -18.4236 S   0  0  0  0  0  0
  -17.8072   14.1002  -19.8144 C   0  0  0  0  0  0
  -15.1050   16.0322  -18.7304 C   0  0  0  0  0  0
  -14.7827   17.3722  -18.5011 C   0  0  0  0  0  0
  -15.6604   18.1311  -17.7782 C   0  0  0  0  0  0
  -21.4181   21.4858  -11.2606 C   0  0  0  0  0  0
  -21.4874   23.2901  -11.5259 C   0  0  0  0  0  0
  -22.8587   23.9885  -10.1789 C   0  0  0  0  0  0
  -23.6363   23.1766   -9.1209 C   0  0  0  0  0  0
  1  2  1  0  0  0
  2  3  1  0  0  0
  3  4  2  0  0  0
  3 34  1  0  0  0
  4  5  1  0  0  0
  4 31  1  0  0  0
  5  6  1  0  0  0
  6  7  1  0  0  0
  7  8  1  0  0  0
  8  9  1  0  0  0
  8 12  1  0  0  0
  9 10  2  0  0  0
  9 17  1  0  0  0
 10 11  1  0  0  0
 11 12  2  0  0  0
 11 16  1  0  0  0
 12 13  1  0  0  0
 13 14  2  0  0  0
 14 15  1  0  0  0
 15 16  2  0  0  0
 17 18  1  0  0  0
 17 22  1  0  0  0
 18 19  1  0  0  0
 19 20  1  0  0  0
 19 23  1  0  0  0
 20 21  2  0  0  0
 20 22  1  0  0  0
 23 24  2  0  0  0
 23 30  1  0  0  0
 24 25  1  0  0  0
 25 26  1  0  0  0
 25 28  2  0  0  0
 26 27  1  0  0  0
 28 29  1  0  0  0
 29 30  2  0  0  0
 31 32  2  0  0  0
 32 33  1  0  0  0
 33 34  2  0  0  0
M  END
>  <CHROM.0>
-64.65516420,-170.63902590,-174.28854701,62.55404610,168.29505911,65.57283115
81.65425021,-164.20933509

>  <CHROM.1>
-68.04760923,-164.08090260,-126.18692917,70.01377990,67.64577590,97.85508050
29.61198634,80.94111836,-20.55597238,18.80683370,-14.59766557,2.22481494
0.11607209,0.90494324

>  <Name>
F0660-2491

>  <RI>
3.41917e+07

>  <Rbt.Current_Directory>
/home/adria/Escritorio/rDock_CMTR_LC/2pxcA_model/inputs_sah

>  <Rbt.Executable>
rbdock ($Id: //depot/dev/client3/rdock/2013.1/src/exe/rbdock.cxx#4 $)

>  <Rbt.Library>
libRbt.so (2013.1, Build901 2013/11/27)

>  <Rbt.Parameter_File>
/home/adria/Escritorio/rDock_2013.1_src/data/scripts/dock.prm

>  <Rbt.Receptor>
sah_rdock.prm

>  <SCORE>
-275.538

>  <SCORE.INTER>
-13.1224

>  <SCORE.INTER.CONST>
1

>  <SCORE.INTER.POLAR>
-1.18464

>  <SCORE.INTER.REPUL>
0.023428

>  <SCORE.INTER.ROT>
8

>  <SCORE.INTER.VDW>
-22.6117

>  <SCORE.INTER.norm>
-0.385952

>  <SCORE.INTRA>
-261.63

>  <SCORE.INTRA.DIHEDRAL>
-4.90179

>  <SCORE.INTRA.DIHEDRAL.0>
24.4548

>  <SCORE.INTRA.POLAR>
0

>  <SCORE.INTRA.POLAR.0>
0

>  <SCORE.INTRA.REPUL>
0

>  <SCORE.INTRA.REPUL.0>
0

>  <SCORE.INTRA.VDW>
-259.179

>  <SCORE.INTRA.VDW.0>
259.687

>  <SCORE.INTRA.norm>
-7.695

>  <SCORE.RESTR>
0

>  <SCORE.RESTR.CAVITY>
0

>  <SCORE.RESTR.norm>
0

>  <SCORE.SYSTEM>
-0.785268

>  <SCORE.SYSTEM.CONST>
0

>  <SCORE.SYSTEM.DIHEDRAL>
2.76761

>  <SCORE.SYSTEM.POLAR>
-3.30342

>  <SCORE.SYSTEM.VDW>
9.06257

>  <SCORE.SYSTEM.norm>
-0.0230961

>  <SCORE.heavy>
34

>  <SCORE.norm>
-8.10404

$$$$
F0660-2491
  rDOCK(R)          3D
libRbt.so/2013.1/901 2013/11/27
 34 38  0  0  0  0  0  0  0  0999 V2000
  -14.7795   20.2165  -16.5257 C   0  0  0  0  0  0
  -15.5643   19.8145  -17.6206 O   0  0  0  0  0  0
  -15.6647   18.4519  -17.5628 C   0  0  0  0  0  0
  -16.4570   17.6240  -16.3374 C   0  0  0  0  0  0
  -17.7065   18.1579  -16.0456 O   0  0  0  0  0  0
  -18.7220   18.4346  -17.0529 C   0  0  0  0  0  0
  -20.1473   18.9439  -16.7577 C   0  0  0  0  0  0
  -20.9486   18.1347  -15.7839 N   0  0  0  0  0  0
  -20.8880   18.1244  -14.3198 C   0  0  0  0  0  0
  -22.0456   17.5318  -13.9159 N   0  0  0  0  0  0
  -22.8962   17.3379  -14.9992 C   0  0  0  0  0  0
  -22.2551   17.7277  -16.1656 C   0  0  0  0  0  0
  -22.8928   17.6571  -17.4226 C   0  0  0  0  0  0
  -24.1079   16.9642  -17.5014 C   0  0  0  0  0  0
  -24.7626   16.5396  -16.3481 C   0  0  0  0  0  0
  -24.2140   16.8096  -15.0794 C   0  0  0  0  0  0
  -19.9060   19.2872  -13.1181 C   0  0  0  0  0  0
  -20.6147   21.4680  -12.8484 C   0  0  0  0  0  0
  -21.9685   21.1839  -11.5029 N   0  0  0  0  0  0
  -22.0944   19.5628  -10.8209 C   0  0  0  0  0  0
  -22.6185   19.3464   -9.7292 O   0  0  0  0  0  0
  -20.7688   18.3714  -11.6004 C   0  0  0  0  0  0
  -22.4209   22.3519  -11.0130 C   0  0  0  0  0  0
  -23.2171   22.1996   -9.9115 C   0  0  0  0  0  0
  -23.7951   23.3301   -9.4184 C   0  0  0  0  0  0
  -24.6134   23.1593   -7.8661 S   0  0  0  0  0  0
  -26.2600   22.9563   -8.5599 C   0  0  0  0  0  0
  -23.6000   24.5536  -10.0856 C   0  0  0  0  0  0
  -22.9276   24.6321  -11.3078 C   0  0  0  0  0  0
  -22.3656   23.4907  -11.8082 C   0  0  0  0  0  0
  -16.2720   15.9803  -16.0453 C   0  0  0  0  0  0
  -15.4216   14.9699  -17.3049 C   0  0  0  0  0  0
  -14.7221   16.3002  -18.6919 C   0  0  0  0  0  0
  -14.8373   17.8393  -18.6612 C   0  0  0  0  0  0
  1  2  1  0  0  0
  2  3  1  0  0  0
  3  4  2  0  0  0
  3 34  1  0  0  0
  4  5  1  0  0  0
  4 31  1  0  0  0
  5  6  1  0  0  0
  6  7  1  0  0  0
  7  8  1  0  0  0
  8  9  1  0  0  0
  8 12  1  0  0  0
  9 10  2  0  0  0
  9 17  1  0  0  0
 10 11  1  0  0  0
 11 12  2  0  0  0
 11 16  1  0  0  0
 12 13  1  0  0  0
 13 14  2  0  0  0
 14 15  1  0  0  0
 15 16  2  0  0  0
 17 18  1  0  0  0
 17 22  1  0  0  0
 18 19  1  0  0  0
 19 20  1  0  0  0
 19 23  1  0  0  0
 20 21  2  0  0  0
 20 22  1  0  0  0
 23 24  2  0  0  0
 23 30  1  0  0  0
 24 25  1  0  0  0
 25 26  1  0  0  0
 25 28  2  0  0  0
 26 27  1  0  0  0
 28 29  1  0  0  0
 29 30  2  0  0  0
 31 32  2  0  0  0
 32 33  1  0  0  0
 33 34  2  0  0  0
M  END
>  <CHROM.0>
37.04570456,-72.87596499,-44.93233438,61.09512689,-29.36512771,179.08321502
83.60096946,-164.51476103

>  <CHROM.1>
65.64728694,50.78148159,176.02005557,-53.97717329,79.48529511,71.89711318
-169.97636412,-97.26408787,-20.77900068,19.55801168,-13.85840797,-0.88865371
0.25802623,0.78239915

>  <Name>
F0660-2491

>  <RI>
3.41917e+07

>  <Rbt.Current_Directory>
/home/adria/Escritorio/rDock_CMTR_LC/2pxcA_model/inputs_sah

>  <Rbt.Executable>
rbdock ($Id: //depot/dev/client3/rdock/2013.1/src/exe/rbdock.cxx#4 $)

>  <Rbt.Library>
libRbt.so (2013.1, Build901 2013/11/27)

>  <Rbt.Parameter_File>
/home/adria/Escritorio/rDock_2013.1_src/data/scripts/dock.prm

>  <Rbt.Receptor>
sah_rdock.prm

>  <SCORE>
-286.663

>  <SCORE.INTER>
-17.9967

>  <SCORE.INTER.CONST>
1

>  <SCORE.INTER.POLAR>
-1.16382

>  <SCORE.INTER.REPUL>
0

>  <SCORE.INTER.ROT>
8

>  <SCORE.INTER.VDW>
-27.4398

>  <SCORE.INTER.norm>
-0.529316

>  <SCORE.INTRA>
-265.582

>  <SCORE.INTRA.DIHEDRAL>
-11.1669

>  <SCORE.INTRA.DIHEDRAL.0>
24.4548

>  <SCORE.INTRA.POLAR>
0

>  <SCORE.INTRA.POLAR.0>
0

>  <SCORE.INTRA.REPUL>
0

>  <SCORE.INTRA.REPUL.0>
0

>  <SCORE.INTRA.VDW>
-259.998

>  <SCORE.INTRA.VDW.0>
259.687

>  <SCORE.INTRA.norm>
-7.81123

>  <SCORE.RESTR>
0

>  <SCORE.RESTR.CAVITY>
0

>  <SCORE.RESTR.norm>
0

>  <SCORE.SYSTEM>
-3.08417

>  <SCORE.SYSTEM.CONST>
0

>  <SCORE.SYSTEM.DIHEDRAL>
8.89904

>  <SCORE.SYSTEM.POLAR>
-3.94445

>  <SCORE.SYSTEM.REPUL>
0.170334

>  <SCORE.SYSTEM.VDW>
5.02577

>  <SCORE.SYSTEM.norm>
-0.0907109

>  <SCORE.heavy>
34

>  <SCORE.norm>
-8.43125

$$$$
F0660-2491
  rDOCK(R)          3D
libRbt.so/2013.1/901 2013/11/27
 34 38  0  0  0  0  0  0  0  0999 V2000
  -14.4396   18.2469  -17.9136 C   0  0  0  0  0  0
  -14.7792   17.3682  -18.9571 O   0  0  0  0  0  0
  -15.2180   16.2095  -18.3784 C   0  0  0  0  0  0
  -16.2679   16.1570  -17.0708 C   0  0  0  0  0  0
  -17.3619   17.0005  -17.2227 O   0  0  0  0  0  0
  -18.5804   16.8936  -16.4314 C   0  0  0  0  0  0
  -19.8476   17.7482  -16.6359 C   0  0  0  0  0  0
  -20.9729   17.4993  -15.6782 N   0  0  0  0  0  0
  -21.0433   17.7789  -14.2415 C   0  0  0  0  0  0
  -22.3682   17.7322  -13.9304 N   0  0  0  0  0  0
  -23.1354   17.6257  -15.0857 C   0  0  0  0  0  0
  -22.2997   17.5079  -16.1861 C   0  0  0  0  0  0
  -22.8096   17.4019  -17.4978 C   0  0  0  0  0  0
  -24.1848   17.1818  -17.6489 C   0  0  0  0  0  0
  -25.0452   17.2698  -16.5576 C   0  0  0  0  0  0
  -24.5435   17.5915  -15.2815 C   0  0  0  0  0  0
  -19.8002   18.7475  -13.1114 C   0  0  0  0  0  0
  -20.0188   21.0379  -12.9191 C   0  0  0  0  0  0
  -21.3611   21.1003  -11.5341 N   0  0  0  0  0  0
  -21.8095   19.5701  -10.7816 C   0  0  0  0  0  0
  -22.3348   19.5113   -9.6707 O   0  0  0  0  0  0
  -20.7927   18.0943  -11.5382 C   0  0  0  0  0  0
  -21.5390   22.3553  -11.0844 C   0  0  0  0  0  0
  -22.7802   22.5629  -10.5491 C   0  0  0  0  0  0
  -23.0707   23.8367  -10.1639 C   0  0  0  0  0  0
  -24.5687   24.0413   -9.2568 S   0  0  0  0  0  0
  -24.0046   23.1653   -7.7911 C   0  0  0  0  0  0
  -22.1291   24.8581  -10.3876 C   0  0  0  0  0  0
  -20.9483   24.6343  -11.1002 C   0  0  0  0  0  0
  -20.6705   23.3573  -11.5015 C   0  0  0  0  0  0
  -16.5157   14.7931  -16.1221 C   0  0  0  0  0  0
  -15.8636   13.1964  -16.7187 C   0  0  0  0  0  0
  -14.7684   13.6422  -18.3874 C   0  0  0  0  0  0
  -14.4998   15.0372  -18.9916 C   0  0  0  0  0  0
  1  2  1  0  0  0
  2  3  1  0  0  0
  3  4  2  0  0  0
  3 34  1  0  0  0
  4  5  1  0  0  0
  4 31  1  0  0  0
  5  6  1  0  0  0
  6  7  1  0  0  0
  7  8  1  0  0  0
  8  9  1  0  0  0
  8 12  1  0  0  0
  9 10  2  0  0  0
  9 17  1  0  0  0
 10 11  1  0  0  0
 11 12  2  0  0  0
 11 16  1  0  0  0
 12 13  1  0  0  0
 13 14  2  0  0  0
 14 15  1  0  0  0
 15 16  2  0  0  0
 17 18  1  0  0  0
 17 22  1  0  0  0
 18 19  1  0  0  0
 19 20  1  0  0  0
 19 23  1  0  0  0
 20 21  2  0  0  0
 20 22  1  0  0  0
 23 24  2  0  0  0
 23 30  1  0  0  0
 24 25  1  0  0  0
 25 26  1  0  0  0
 25 28  2  0  0  0
 26 27  1  0  0  0
 28 29  1  0  0  0
 29 30  2  0  0  0
 31 32  2  0  0  0
 32 33  1  0  0  0
 33 34  2  0  0  0
M  END
>  <CHROM.0>
179.89300602,64.50406534,-42.56751207,62.68159461,-32.97347761,176.82019131
-36.53512328,-161.29918351

>  <CHROM.1>
44.00659157,163.08268027,-175.64932205,-178.16853056,67.84480296,87.29748314
154.69103033,68.12672558,-20.42630187,19.04927876,-14.10699616,-1.00182283
0.09803456,0.76345903

>  <Name>
F0660-2491

>  <RI>
3.41917e+07

>  <Rbt.Current_Directory>
/home/adria/Escritorio/rDock_CMTR_LC/2pxcA_model/inputs_sah

>  <Rbt.Executable>
rbdock ($Id: //depot/dev/client3/rdock/2013.1/src/exe/rbdock.cxx#4 $)

>  <Rbt.Library>
libRbt.so (2013.1, Build901 2013/11/27)

>  <Rbt.Parameter_File>
/home/adria/Escritorio/rDock_2013.1_src/data/scripts/dock.prm

>  <Rbt.Receptor>
sah_rdock.prm

>  <SCORE>
-288.976

>  <SCORE.INTER>
-16.9927

>  <SCORE.INTER.CONST>
1

>  <SCORE.INTER.POLAR>
-0.732466

>  <SCORE.INTER.REPUL>
0.000589937

>  <SCORE.INTER.ROT>
8

>  <SCORE.INTER.VDW>
-27.9052

>  <SCORE.INTER.norm>
-0.499785

>  <SCORE.INTRA>
-265.399

>  <SCORE.INTRA.DIHEDRAL>
-15.184

>  <SCORE.INTRA.DIHEDRAL.0>
24.4548

>  <SCORE.INTRA.POLAR>
0

>  <SCORE.INTRA.POLAR.0>
0

>  <SCORE.INTRA.REPUL>
0

>  <SCORE.INTRA.REPUL.0>
0

>  <SCORE.INTRA.VDW>
-257.807

>  <SCORE.INTRA.VDW.0>
259.687

>  <SCORE.INTRA.norm>
-7.80585

>  <SCORE.RESTR>
0

>  <SCORE.RESTR.CAVITY>
0

>  <SCORE.RESTR.norm>
0

>  <SCORE.SYSTEM>
-6.58393

>  <SCORE.SYSTEM.CONST>
0

>  <SCORE.SYSTEM.DIHEDRAL>
5.59045

>  <SCORE.SYSTEM.POLAR>
-3.65149

>  <SCORE.SYSTEM.VDW>
3.03589

>  <SCORE.SYSTEM.norm>
-0.193645

>  <SCORE.heavy>
34

>  <SCORE.norm>
-8.49928

$$$$
F0660-2491
  rDOCK(R)          3D
libRbt.so/2013.1/901 2013/11/27
 34 38  0  0  0  0  0  0  0  0999 V2000
  -20.8541   25.9163  -10.1306 C   0  0  0  0  0  0
  -21.5020   24.9929   -9.2917 O   0  0  0  0  0  0
  -22.3093   24.2272  -10.0867 C   0  0  0  0  0  0
  -21.8487   23.6266  -11.5840 C   0  0  0  0  0  0
  -20.5874   23.0431  -11.5667 O   0  0  0  0  0  0
  -20.2472   21.8328  -12.3028 C   0  0  0  0  0  0
  -20.7598   20.4178  -11.9667 C   0  0  0  0  0  0
  -22.2471   20.2353  -11.9762 N   0  0  0  0  0  0
  -23.1093   19.7253  -13.0456 C   0  0  0  0  0  0
  -24.2842   19.4025  -12.4373 N   0  0  0  0  0  0
  -24.1595   19.5013  -11.0556 C   0  0  0  0  0  0
  -22.9000   19.9878  -10.7390 C   0  0  0  0  0  0
  -22.4900   20.1724   -9.4012 C   0  0  0  0  0  0
  -23.4647   20.0763   -8.3994 C   0  0  0  0  0  0
  -24.7450   19.6138   -8.6924 C   0  0  0  0  0  0
  -25.0774   19.2262  -10.0049 C   0  0  0  0  0  0
  -22.6247   18.9191  -14.7414 C   0  0  0  0  0  0
  -20.8107   19.7576  -15.8977 C   0  0  0  0  0  0
  -19.4043   18.7819  -15.0066 N   0  0  0  0  0  0
  -19.8945   17.5399  -13.8551 C   0  0  0  0  0  0
  -19.1509   16.6169  -13.5255 O   0  0  0  0  0  0
  -21.8325   17.4126  -13.7467 C   0  0  0  0  0  0
  -18.2256   18.9452  -15.6335 C   0  0  0  0  0  0
  -17.4412   17.8254  -15.6019 C   0  0  0  0  0  0
  -16.1906   17.9442  -16.1284 C   0  0  0  0  0  0
  -15.2856   16.4413  -16.3036 S   0  0  0  0  0  0
  -15.6404   16.2286  -18.0537 C   0  0  0  0  0  0
  -15.7586   19.1947  -16.6078 C   0  0  0  0  0  0
  -16.5265   20.3520  -16.4561 C   0  0  0  0  0  0
  -17.7735   20.2304  -15.9093 C   0  0  0  0  0  0
  -22.9252   23.0201  -12.7219 C   0  0  0  0  0  0
  -24.6434   22.6969  -12.1987 C   0  0  0  0  0  0
  -24.7817   23.4288  -10.2940 C   0  0  0  0  0  0
  -23.6858   24.1515   -9.4818 C   0  0  0  0  0  0
  1  2  1  0  0  0
  2  3  1  0  0  0
  3  4  2  0  0  0
  3 34  1  0  0  0
  4  5  1  0  0  0
  4 31  1  0  0  0
  5  6  1  0  0  0
  6  7  1  0  0  0
  7  8  1  0  0  0
  8  9  1  0  0  0
  8 12  1  0  0  0
  9 10  2  0  0  0
  9 17  1  0  0  0
 10 11  1  0  0  0
 11 12  2  0  0  0
 11 16  1  0  0  0
 12 13  1  0  0  0
 13 14  2  0  0  0
 14 15  1  0  0  0
 15 16  2  0  0  0
 17 18  1  0  0  0
 17 22  1  0  0  0
 18 19  1  0  0  0
 19 20  1  0  0  0
 19 23  1  0  0  0
 20 21  2  0  0  0
 20 22  1  0  0  0
 23 24  2  0  0  0
 23 30  1  0  0  0
 24 25  1  0  0  0
 25 26  1  0  0  0
 25 28  2  0  0  0
 26 27  1  0  0  0
 28 29  1  0  0  0
 29 30  2  0  0  0
 31 32  2  0  0  0
 32 33  1  0  0  0
 33 34  2  0  0  0
M  END
>  <CHROM.0>
-179.25944890,-73.85228171,-41.22484383,-64.25373636,168.04817261,57.23092894
-37.12014052,-46.86922674

>  <CHROM.1>
42.30446181,141.13384571,-70.05666370,58.81962766,96.44187484,-38.25618851
-144.80158446,99.17266816,-20.71725912,20.20333873,-12.92530406,-2.44896475
-0.56237882,-2.81142362

>  <Name>
F0660-2491

>  <RI>
3.41917e+07

>  <Rbt.Current_Directory>
/home/adria/Escritorio/rDock_CMTR_LC/2pxcA_model/inputs_sah

>  <Rbt.Executable>
rbdock ($Id: //depot/dev/client3/rdock/2013.1/src/exe/rbdock.cxx#4 $)

>  <Rbt.Library>
libRbt.so (2013.1, Build901 2013/11/27)

>  <Rbt.Parameter_File>
/home/adria/Escritorio/rDock_2013.1_src/data/scripts/dock.prm

>  <Rbt.Receptor>
sah_rdock.prm

>  <SCORE>
-281.186

>  <SCORE.INTER>
-11.8136

>  <SCORE.INTER.CONST>
1

>  <SCORE.INTER.POLAR>
-0.436283

>  <SCORE.INTER.REPUL>
0.0367854

>  <SCORE.INTER.ROT>
8

>  <SCORE.INTER.VDW>
-23.9142

>  <SCORE.INTER.norm>
-0.34746

>  <SCORE.INTRA>
-269.526

>  <SCORE.INTRA.DIHEDRAL>
-11.9081

>  <SCORE.INTRA.DIHEDRAL.0>
24.4548

>  <SCORE.INTRA.POLAR>
0

>  <SCORE.INTRA.POLAR.0>
0

>  <SCORE.INTRA.REPUL>
0

>  <SCORE.INTRA.REPUL.0>
0

>  <SCORE.INTRA.VDW>
-263.572

>  <SCORE.INTRA.VDW.0>
259.687

>  <SCORE.INTRA.norm>
-7.92722

>  <SCORE.RESTR>
0

>  <SCORE.RESTR.CAVITY>
0

>  <SCORE.RESTR.norm>
0

>  <SCORE.SYSTEM>
0.153275

>  <SCORE.SYSTEM.CONST>
0

>  <SCORE.SYSTEM.DIHEDRAL>
6.19948

>  <SCORE.SYSTEM.POLAR>
-3.55679

>  <SCORE.SYSTEM.REPUL>
0.0597765

>  <SCORE.SYSTEM.VDW>
8.84774

>  <SCORE.SYSTEM.norm>
0.00450808

>  <SCORE.heavy>
34

>  <SCORE.norm>
-8.27018

$$$$
F0660-2491
  rDOCK(R)          3D
libRbt.so/2013.1/901 2013/11/27
 34 38  0  0  0  0  0  0  0  0999 V2000
  -19.9873   21.4572  -14.3413 C   0  0  0  0  0  0
  -18.6932   21.5691  -14.8790 O   0  0  0  0  0  0
  -18.4479   20.4182  -15.5756 C   0  0  0  0  0  0
  -17.7367   19.0540  -14.9063 C   0  0  0  0  0  0
  -18.2903   18.7028  -13.6808 O   0  0  0  0  0  0
  -19.6974   18.3745  -13.4945 C   0  0  0  0  0  0
  -20.4619   17.2807  -14.2673 C   0  0  0  0  0  0
  -21.9413   17.4785  -14.4001 N   0  0  0  0  0  0
  -22.9456   17.6761  -13.3514 C   0  0  0  0  0  0
  -24.0380   18.1795  -13.9898 N   0  0  0  0  0  0
  -23.7329   18.4781  -15.3136 C   0  0  0  0  0  0
  -22.4330   18.0809  -15.5890 C   0  0  0  0  0  0
  -21.8491   18.2796  -16.8584 C   0  0  0  0  0  0
  -22.6872   18.6752  -17.9090 C   0  0  0  0  0  0
  -24.0041   19.0565  -17.6656 C   0  0  0  0  0  0
  -24.5122   19.0581  -16.3521 C   0  0  0  0  0  0
  -22.7023   17.9548  -11.4479 C   0  0  0  0  0  0
  -21.9290   20.0012  -10.7096 C   0  0  0  0  0  0
  -23.6036   20.9589  -10.6584 N   0  0  0  0  0  0
  -25.0702   20.0276  -10.9592 C   0  0  0  0  0  0
  -26.1795   20.4070  -10.5864 O   0  0  0  0  0  0
  -24.6560   18.1531  -11.2737 C   0  0  0  0  0  0
  -23.4618   22.1564  -10.0625 C   0  0  0  0  0  0
  -22.4663   22.9154  -10.6130 C   0  0  0  0  0  0
  -22.1953   24.1005   -9.9988 C   0  0  0  0  0  0
  -21.0885   25.1732  -10.8549 S   0  0  0  0  0  0
  -22.2869   25.7154  -12.0812 C   0  0  0  0  0  0
  -22.8905   24.4454   -8.8250 C   0  0  0  0  0  0
  -23.7703   23.5598   -8.1975 C   0  0  0  0  0  0
  -24.0243   22.3634   -8.8083 C   0  0  0  0  0  0
  -17.0909   17.7945  -15.8107 C   0  0  0  0  0  0
  -17.4551   17.7398  -17.5982 C   0  0  0  0  0  0
  -18.4424   19.4832  -18.0085 C   0  0  0  0  0  0
  -18.7681   20.6327  -17.0308 C   0  0  0  0  0  0
  1  2  1  0  0  0
  2  3  1  0  0  0
  3  4  2  0  0  0
  3 34  1  0  0  0
  4  5  1  0  0  0
  4 31  1  0  0  0
  5  6  1  0  0  0
  6  7  1  0  0  0
  7  8  1  0  0  0
  8  9  1  0  0  0
  8 12  1  0  0  0
  9 10  2  0  0  0
  9 17  1  0  0  0
 10 11  1  0  0  0
 11 12  2  0  0  0
 11 16  1  0  0  0
 12 13  1  0  0  0
 13 14  2  0  0  0
 14 15  1  0  0  0
 15 16  2  0  0  0
 17 18  1  0  0  0
 17 22  1  0  0  0
 18 19  1  0  0  0
 19 20  1  0  0  0
 19 23  1  0  0  0
 20 21  2  0  0  0
 20 22  1  0  0  0
 23 24  2  0  0  0
 23 30  1  0  0  0
 24 25  1  0  0  0
 25 26  1  0  0  0
 25 28  2  0  0  0
 26 27  1  0  0  0
 28 29  1  0  0  0
 29 30  2  0  0  0
 31 32  2  0  0  0
 32 33  1  0  0  0
 33 34  2  0  0  0
M  END
>  <CHROM.0>
172.51516922,-169.42631921,-167.18210364,-66.23388685,167.48539408,-57.70919322
82.03695482,-160.06353336

>  <CHROM.1>
-90.69729763,59.39072550,55.70714529,-153.82953570,-55.71863982,73.79956260
53.58062201,75.80632369,-21.71030573,20.37106603,-13.29560137,-1.10975377
0.48695214,0.71857673

>  <Name>
F0660-2491

>  <RI>
3.41917e+07

>  <Rbt.Current_Directory>
/home/adria/Escritorio/rDock_CMTR_LC/2pxcA_model/inputs_sah

>  <Rbt.Executable>
rbdock ($Id: //depot/dev/client3/rdock/2013.1/src/exe/rbdock.cxx#4 $)

>  <Rbt.Library>
libRbt.so (2013.1, Build901 2013/11/27)

>  <Rbt.Parameter_File>
/home/adria/Escritorio/rDock_2013.1_src/data/scripts/dock.prm

>  <Rbt.Receptor>
sah_rdock.prm

>  <SCORE>
-276.809

>  <SCORE.INTER>
-13.5237

>  <SCORE.INTER.CONST>
1

>  <SCORE.INTER.POLAR>
0

>  <SCORE.INTER.REPUL>
0

>  <SCORE.INTER.ROT>
8

>  <SCORE.INTER.VDW>
-26.9237

>  <SCORE.INTER.norm>
-0.397757

>  <SCORE.INTRA>
-262.85

>  <SCORE.INTRA.DIHEDRAL>
-2.18738

>  <SCORE.INTRA.DIHEDRAL.0>
24.4548

>  <SCORE.INTRA.POLAR>
0

>  <SCORE.INTRA.POLAR.0>
0

>  <SCORE.INTRA.REPUL>
0

>  <SCORE.INTRA.REPUL.0>
0

>  <SCORE.INTRA.VDW>
-261.756

>  <SCORE.INTRA.VDW.0>
259.687

>  <SCORE.INTRA.norm>
-7.73089

>  <SCORE.RESTR>
0

>  <SCORE.RESTR.CAVITY>
0

>  <SCORE.RESTR.norm>
0

>  <SCORE.SYSTEM>
-0.435328

>  <SCORE.SYSTEM.CONST>
0

>  <SCORE.SYSTEM.DIHEDRAL>
3.77926

>  <SCORE.SYSTEM.POLAR>
-3.4936

>  <SCORE.SYSTEM.VDW>
9.55328

>  <SCORE.SYSTEM.norm>
-0.0128038

>  <SCORE.heavy>
34

>  <SCORE.norm>
-8.14145

$$$$
F0660-2491
  rDOCK(R)          3D
libRbt.so/2013.1/901 2013/11/27
 34 38  0  0  0  0  0  0  0  0999 V2000
  -26.3016   23.6652   -8.6105 C   0  0  0  0  0  0
  -24.9817   23.3633   -8.9886 O   0  0  0  0  0  0
  -24.9349   22.0204   -9.2425 C   0  0  0  0  0  0
  -26.0984   21.1949  -10.1254 C   0  0  0  0  0  0
  -26.4394   21.8422  -11.3070 O   0  0  0  0  0  0
  -25.7708   21.6058  -12.5796 C   0  0  0  0  0  0
  -24.2462   21.4697  -12.7676 C   0  0  0  0  0  0
  -23.3955   22.3904  -11.9467 N   0  0  0  0  0  0
  -22.2020   22.0850  -11.1531 C   0  0  0  0  0  0
  -21.6011   23.2864  -10.9303 N   0  0  0  0  0  0
  -22.2238   24.2862  -11.6700 C   0  0  0  0  0  0
  -23.3213   23.7559  -12.3315 C   0  0  0  0  0  0
  -24.1324   24.5450  -13.1749 C   0  0  0  0  0  0
  -23.9470   25.9333  -13.1486 C   0  0  0  0  0  0
  -22.8675   26.4958  -12.4724 C   0  0  0  0  0  0
  -21.9373   25.6721  -11.8092 C   0  0  0  0  0  0
  -21.1830   20.4388  -11.0423 C   0  0  0  0  0  0
  -21.5732   18.7780  -12.5980 C   0  0  0  0  0  0
  -20.4312   19.4155  -14.0168 N   0  0  0  0  0  0
  -19.4006   20.8001  -13.6566 C   0  0  0  0  0  0
  -18.3864   21.0528  -14.3055 O   0  0  0  0  0  0
  -19.6433   21.3934  -11.8200 C   0  0  0  0  0  0
  -20.3213   18.5045  -15.0002 C   0  0  0  0  0  0
  -19.0373   18.0753  -15.1933 C   0  0  0  0  0  0
  -18.8306   17.2272  -16.2389 C   0  0  0  0  0  0
  -17.2300   16.4934  -16.3272 S   0  0  0  0  0  0
  -16.7696   17.2688  -17.8830 C   0  0  0  0  0  0
  -19.9071   16.8944  -17.0819 C   0  0  0  0  0  0
  -21.1613   17.4968  -16.9551 C   0  0  0  0  0  0
  -21.3579   18.3622  -15.9152 C   0  0  0  0  0  0
  -26.2616   19.5231  -10.1280 C   0  0  0  0  0  0
  -24.9218   18.5237   -9.3952 C   0  0  0  0  0  0
  -23.6366   19.8699   -8.5474 C   0  0  0  0  0  0
  -23.7867   21.4052   -8.4879 C   0  0  0  0  0  0
  1  2  1  0  0  0
  2  3  1  0  0  0
  3  4  2  0  0  0
  3 34  1  0  0  0
  4  5  1  0  0  0
  4 31  1  0  0  0
  5  6  1  0  0  0
  6  7  1  0  0  0
  7  8  1  0  0  0
  8  9  1  0  0  0
  8 12  1  0  0  0
  9 10  2  0  0  0
  9 17  1  0  0  0
 10 11  1  0  0  0
 11 12  2  0  0  0
 11 16  1  0  0  0
 12 13  1  0  0  0
 13 14  2  0  0  0
 14 15  1  0  0  0
 15 16  2  0  0  0
 17 18  1  0  0  0
 17 22  1  0  0  0
 18 19  1  0  0  0
 19 20  1  0  0  0
 19 23  1  0  0  0
 20 21  2  0  0  0
 20 22  1  0  0  0
 23 24  2  0  0  0
 23 30  1  0  0  0
 24 25  1  0  0  0
 25 26  1  0  0  0
 25 28  2  0  0  0
 26 27  1  0  0  0
 28 29  1  0  0  0
 29 30  2  0  0  0
 31 32  2  0  0  0
 32 33  1  0  0  0
 33 34  2  0  0  0
M  END
>  <CHROM.0>
174.12653219,-168.75347570,73.93518329,-64.38182090,-30.74663055,63.98617956
-36.28128824,-156.72290714

>  <CHROM.1>
44.40534804,90.44135814,-42.95323461,-39.05178780,133.52387997,12.40267259
-118.85085733,-115.98205911,-22.11258879,20.86474894,-12.69232916,2.53481672
0.72473150,0.05871846

>  <Name>
F0660-2491

>  <RI>
3.41917e+07

>  <Rbt.Current_Directory>
/home/adria/Escritorio/rDock_CMTR_LC/2pxcA_model/inputs_sah

>  <Rbt.Executable>
rbdock ($Id: //depot/dev/client3/rdock/2013.1/src/exe/rbdock.cxx#4 $)

>  <Rbt.Library>
libRbt.so (2013.1, Build901 2013/11/27)

>  <Rbt.Parameter_File>
/home/adria/Escritorio/rDock_2013.1_src/data/scripts/dock.prm

>  <Rbt.Receptor>
sah_rdock.prm

>  <SCORE>
-276.354

>  <SCORE.INTER>
-6.4713

>  <SCORE.INTER.CONST>
1

>  <SCORE.INTER.POLAR>
0

>  <SCORE.INTER.REPUL>
0.124225

>  <SCORE.INTER.ROT>
8

>  <SCORE.INTER.VDW>
-20.4924

>  <SCORE.INTER.norm>
-0.190332

>  <SCORE.INTRA>
-264.085

>  <SCORE.INTRA.DIHEDRAL>
-0.447601

>  <SCORE.INTRA.DIHEDRAL.0>
24.4548

>  <SCORE.INTRA.POLAR>
0

>  <SCORE.INTRA.POLAR.0>
0

>  <SCORE.INTRA.REPUL>
0

>  <SCORE.INTRA.REPUL.0>
0

>  <SCORE.INTRA.VDW>
-263.861

>  <SCORE.INTRA.VDW.0>
259.687

>  <SCORE.INTRA.norm>
-7.76721

>  <SCORE.RESTR>
0

>  <SCORE.RESTR.CAVITY>
0

>  <SCORE.RESTR.norm>
0

>  <SCORE.SYSTEM>
-5.7972

>  <SCORE.SYSTEM.CONST>
0

>  <SCORE.SYSTEM.DIHEDRAL>
6.79488

>  <SCORE.SYSTEM.POLAR>
-3.74033

>  <SCORE.SYSTEM.VDW>
3.52247

>  <SCORE.SYSTEM.norm>
-0.170506

>  <SCORE.heavy>
34

>  <SCORE.norm>
-8.12804

$$$$
