F2437-0207
  rDOCK(R)          3D
libRbt.so/2013.1/901 2013/11/27
 34 37  0  0  0  0  0  0  0  0999 V2000
  -24.5297   15.9185  -15.3688 C   0  0  0  0  0  0
  -24.8862   17.3025  -15.1820 O   0  0  0  0  0  0
  -23.9352   18.2170  -14.5801 C   0  0  0  0  0  0
  -23.1009   19.2120  -16.1229 C   0  0  0  0  0  0
  -21.0043   19.1505  -15.9652 C   0  0  0  0  0  0
  -20.1490   19.8102  -16.7835 N   0  0  0  0  0  0
  -19.1447   19.1025  -17.3378 C   0  0  0  0  0  0
  -18.5004   19.5499  -18.2779 O   0  0  0  0  0  0
  -19.0640   17.6648  -16.8346 C   0  0  0  0  0  0
  -17.9420   16.6947  -17.4163 N   0  3  0  0  0  0
  -18.0266   15.4053  -16.8288 C   0  0  0  0  0  0
  -18.7702   15.2011  -15.8637 O   0  0  0  0  0  0
  -17.1799   14.4479  -17.3421 N   0  3  0  0  0  0
  -17.3682   13.0617  -16.9165 C   0  0  0  0  0  0
  -17.1755   12.9092  -15.4323 C   0  0  0  0  0  0
  -18.2657   12.7898  -14.5792 C   0  0  0  0  0  0
  -18.1615   12.7127  -13.2347 N   0  0  0  0  0  0
  -16.9145   12.7735  -12.7166 C   0  0  0  0  0  0
  -15.7669   12.9088  -13.4770 C   0  0  0  0  0  0
  -15.9032   12.9708  -14.8562 C   0  0  0  0  0  0
  -16.1603   14.7094  -18.2492 C   0  0  0  0  0  0
  -15.4725   13.8034  -18.7242 O   0  0  0  0  0  0
  -15.7978   16.1277  -18.5217 C   0  0  0  0  0  0
  -16.2896   17.1748  -17.7439 C   0  0  0  0  0  0
  -15.5552   18.7896  -16.8210 C   0  0  0  0  0  0
  -14.5679   19.0179  -17.0867 C   0  0  0  0  0  0
  -14.2956   17.6045  -18.4111 C   0  0  0  0  0  0
  -14.6633   16.4096  -19.0170 N   0  0  0  0  0  0
  -20.2440   18.4326  -14.2496 C   0  0  0  0  0  0
  -19.1264   19.2840  -13.8993 O   0  0  0  0  0  0
  -19.5725   20.4728  -13.2481 C   0  0  0  0  0  0
  -21.1578   17.7035  -12.6058 C   0  0  0  0  0  0
  -23.1714   17.5861  -12.8456 C   0  0  0  0  0  0
  -20.3290   20.7926  -16.9602 H   0  0  0  0  0  0
  1  2  1  0  0  0
  2  3  1  0  0  0
  3  4  2  0  0  0
  3 33  1  0  0  0
  4  5  1  0  0  0
  5  6  1  0  0  0
  5 29  2  0  0  0
  6  7  1  0  0  0
  6 34  1  0  0  0
  7  8  2  0  0  0
  7  9  1  0  0  0
  9 10  1  0  0  0
 10 11  1  0  0  0
 10 24  1  0  0  0
 11 12  2  0  0  0
 11 13  1  0  0  0
 13 14  1  0  0  0
 13 21  1  0  0  0
 14 15  1  0  0  0
 15 16  2  0  0  0
 15 20  1  0  0  0
 16 17  1  0  0  0
 17 18  2  0  0  0
 18 19  1  0  0  0
 19 20  2  0  0  0
 21 22  2  0  0  0
 21 23  1  0  0  0
 23 24  2  0  0  0
 23 28  1  0  0  0
 24 25  1  0  0  0
 25 26  2  0  0  0
 26 27  1  0  0  0
 27 28  2  0  0  0
 29 30  1  0  0  0
 29 32  1  0  0  0
 30 31  1  0  0  0
 32 33  2  0  0  0
M  END
>  <CHROM.0>
-177.25290848,-77.34869207,-10.63255968,67.21524606,33.01674820,60.56262072
-157.90242900,-163.21082513

>  <CHROM.1>
99.67514845,-129.50956918,178.97904164,179.97089456,-61.51443551,102.50552988
81.64881952,-18.59023537,16.53812523,-15.95865739,2.84680589,0.48089396,-0.43130059

>  <Name>
F2437-0207

>  <RI>
4.27687e+07

>  <Rbt.Current_Directory>
/home/adria/Escritorio/rDock_CMTR_LC/2pxcA_model/inputs_sah

>  <Rbt.Executable>
rbdock ($Id: //depot/dev/client3/rdock/2013.1/src/exe/rbdock.cxx#4 $)

>  <Rbt.Library>
libRbt.so (2013.1, Build901 2013/11/27)

>  <Rbt.Parameter_File>
/home/adria/Escritorio/rDock_2013.1_src/data/scripts/dock.prm

>  <Rbt.Receptor>
sah_rdock.prm

>  <SCORE>
-238.232

>  <SCORE.INTER>
-16.5992

>  <SCORE.INTER.CONST>
1

>  <SCORE.INTER.POLAR>
-1.01209

>  <SCORE.INTER.REPUL>
0

>  <SCORE.INTER.ROT>
7

>  <SCORE.INTER.VDW>
-25.5581

>  <SCORE.INTER.norm>
-0.503005

>  <SCORE.INTRA>
-226.596

>  <SCORE.INTRA.DIHEDRAL>
14.2428

>  <SCORE.INTRA.DIHEDRAL.0>
6.41702

>  <SCORE.INTRA.POLAR>
0

>  <SCORE.INTRA.POLAR.0>
0

>  <SCORE.INTRA.REPUL>
0

>  <SCORE.INTRA.REPUL.0>
0

>  <SCORE.INTRA.VDW>
-233.718

>  <SCORE.INTRA.VDW.0>
230.844

>  <SCORE.INTRA.norm>
-6.86655

>  <SCORE.RESTR>
0.159205

>  <SCORE.RESTR.CAVITY>
0.159205

>  <SCORE.RESTR.norm>
0.00482438

>  <SCORE.SYSTEM>
4.80396

>  <SCORE.SYSTEM.CONST>
0

>  <SCORE.SYSTEM.DIHEDRAL>
9.5165

>  <SCORE.SYSTEM.POLAR>
-4.36827

>  <SCORE.SYSTEM.REPUL>
0.0453594

>  <SCORE.SYSTEM.VDW>
14.671

>  <SCORE.SYSTEM.norm>
0.145575

>  <SCORE.heavy>
33

>  <SCORE.norm>
-7.21916

$$$$
F2437-0207
  rDOCK(R)          3D
libRbt.so/2013.1/901 2013/11/27
 34 37  0  0  0  0  0  0  0  0999 V2000
  -20.6341   23.3759  -12.1659 C   0  0  0  0  0  0
  -21.4592   22.7864  -11.1416 O   0  0  0  0  0  0
  -21.7230   21.3605  -11.1604 C   0  0  0  0  0  0
  -21.9116   20.8779  -13.1092 C   0  0  0  0  0  0
  -23.6833   19.7841  -13.4084 C   0  0  0  0  0  0
  -24.0530   19.2200  -14.5836 N   0  0  0  0  0  0
  -23.1945   18.3537  -15.1574 C   0  0  0  0  0  0
  -23.5555   17.6124  -16.0625 O   0  0  0  0  0  0
  -21.8583   18.2493  -14.4291 C   0  0  0  0  0  0
  -20.5304   17.9785  -15.2666 N   0  3  0  0  0  0
  -19.8422   16.8370  -14.7785 C   0  0  0  0  0  0
  -20.1875   16.2982  -13.7219 O   0  0  0  0  0  0
  -18.7401   16.4377  -15.5016 N   0  3  0  0  0  0
  -18.1206   15.1572  -15.1631 C   0  0  0  0  0  0
  -18.5543   14.0681  -16.1061 C   0  0  0  0  0  0
  -18.7204   12.7624  -15.6609 C   0  0  0  0  0  0
  -19.0468   11.7301  -16.4686 N   0  0  0  0  0  0
  -19.1990   12.0098  -17.7823 C   0  0  0  0  0  0
  -19.0394   13.2710  -18.3279 C   0  0  0  0  0  0
  -18.7185   14.3148  -17.4724 C   0  0  0  0  0  0
  -18.1803   17.1678  -16.5430 C   0  0  0  0  0  0
  -17.2310   16.7321  -17.1978 O   0  0  0  0  0  0
  -18.6408   18.5673  -16.7579 C   0  0  0  0  0  0
  -19.4399   19.2295  -15.8272 C   0  0  0  0  0  0
  -19.4648   21.0083  -14.9141 C   0  0  0  0  0  0
  -18.7966   21.7043  -15.3225 C   0  0  0  0  0  0
  -18.0989   20.6058  -16.7828 C   0  0  0  0  0  0
  -17.9182   19.3806  -17.4123 N   0  0  0  0  0  0
  -24.6607   19.1725  -11.7629 C   0  0  0  0  0  0
  -25.1059   17.8188  -12.0205 O   0  0  0  0  0  0
  -26.0124   17.3769  -11.0109 C   0  0  0  0  0  0
  -24.2553   19.4547   -9.8073 C   0  0  0  0  0  0
  -22.6546   20.6744   -9.5321 C   0  0  0  0  0  0
  -24.9684   19.4549  -14.9518 H   0  0  0  0  0  0
  1  2  1  0  0  0
  2  3  1  0  0  0
  3  4  2  0  0  0
  3 33  1  0  0  0
  4  5  1  0  0  0
  5  6  1  0  0  0
  5 29  2  0  0  0
  6  7  1  0  0  0
  6 34  1  0  0  0
  7  8  2  0  0  0
  7  9  1  0  0  0
  9 10  1  0  0  0
 10 11  1  0  0  0
 10 24  1  0  0  0
 11 12  2  0  0  0
 11 13  1  0  0  0
 13 14  1  0  0  0
 13 21  1  0  0  0
 14 15  1  0  0  0
 15 16  2  0  0  0
 15 20  1  0  0  0
 16 17  1  0  0  0
 17 18  2  0  0  0
 18 19  1  0  0  0
 19 20  2  0  0  0
 21 22  2  0  0  0
 21 23  1  0  0  0
 23 24  2  0  0  0
 23 28  1  0  0  0
 24 25  1  0  0  0
 25 26  2  0  0  0
 26 27  1  0  0  0
 27 28  2  0  0  0
 29 30  1  0  0  0
 29 32  1  0  0  0
 30 31  1  0  0  0
 32 33  2  0  0  0
M  END
>  <CHROM.0>
39.95617163,69.29385916,-166.45131627,65.64300514,-29.17510441,179.45047091
-39.35361612,-153.55807745

>  <CHROM.1>
-37.13560064,56.17585307,-146.75812236,-125.08630653,99.50338824,-145.53594581
-169.66215162,-20.75003726,17.93355895,-14.58531576,-2.22200270,-0.61582928
-2.85452657

>  <Name>
F2437-0207

>  <RI>
4.27687e+07

>  <Rbt.Current_Directory>
/home/adria/Escritorio/rDock_CMTR_LC/2pxcA_model/inputs_sah

>  <Rbt.Executable>
rbdock ($Id: //depot/dev/client3/rdock/2013.1/src/exe/rbdock.cxx#4 $)

>  <Rbt.Library>
libRbt.so (2013.1, Build901 2013/11/27)

>  <Rbt.Parameter_File>
/home/adria/Escritorio/rDock_2013.1_src/data/scripts/dock.prm

>  <Rbt.Receptor>
sah_rdock.prm

>  <SCORE>
-233.951

>  <SCORE.INTER>
-6.24054

>  <SCORE.INTER.CONST>
1

>  <SCORE.INTER.POLAR>
-0.240286

>  <SCORE.INTER.REPUL>
0.00671975

>  <SCORE.INTER.ROT>
7

>  <SCORE.INTER.VDW>
-17.8572

>  <SCORE.INTER.norm>
-0.189107

>  <SCORE.INTRA>
-225.324

>  <SCORE.INTRA.DIHEDRAL>
10.702

>  <SCORE.INTRA.DIHEDRAL.0>
6.41702

>  <SCORE.INTRA.POLAR>
0

>  <SCORE.INTRA.POLAR.0>
0

>  <SCORE.INTRA.REPUL>
0

>  <SCORE.INTRA.REPUL.0>
0

>  <SCORE.INTRA.VDW>
-230.675

>  <SCORE.INTRA.VDW.0>
230.844

>  <SCORE.INTRA.norm>
-6.82801

>  <SCORE.RESTR>
0.0437852

>  <SCORE.RESTR.CAVITY>
0.0437852

>  <SCORE.RESTR.norm>
0.00132682

>  <SCORE.SYSTEM>
-2.42951

>  <SCORE.SYSTEM.CONST>
0

>  <SCORE.SYSTEM.DIHEDRAL>
8.47693

>  <SCORE.SYSTEM.POLAR>
-3.53113

>  <SCORE.SYSTEM.REPUL>
0.123337

>  <SCORE.SYSTEM.VDW>
4.72119

>  <SCORE.SYSTEM.norm>
-0.0736214

>  <SCORE.heavy>
33

>  <SCORE.norm>
-7.08941

$$$$
F2437-0207
  rDOCK(R)          3D
libRbt.so/2013.1/901 2013/11/27
 34 37  0  0  0  0  0  0  0  0999 V2000
  -16.7271   19.6132  -16.5554 C   0  0  0  0  0  0
  -17.2995   19.9833  -15.2854 O   0  0  0  0  0  0
  -18.7402   19.9981  -15.1210 C   0  0  0  0  0  0
  -19.0525   19.8553  -13.1339 C   0  0  0  0  0  0
  -20.4334   18.3198  -12.7340 C   0  0  0  0  0  0
  -20.9379   18.0351  -11.5091 N   0  0  0  0  0  0
  -21.4193   19.0606  -10.7786 C   0  0  0  0  0  0
  -22.1208   18.8612   -9.7951 O   0  0  0  0  0  0
  -21.1916   20.4248  -11.4218 C   0  0  0  0  0  0
  -22.4080   21.1650  -12.1364 N   0  3  0  0  0  0
  -22.2486   22.5747  -12.0870 C   0  0  0  0  0  0
  -21.3610   23.0837  -11.3949 O   0  0  0  0  0  0
  -23.1820   23.3154  -12.7776 N   0  3  0  0  0  0
  -22.9481   24.7510  -12.9287 C   0  0  0  0  0  0
  -22.5895   25.3926  -11.6159 C   0  0  0  0  0  0
  -21.4909   26.2367  -11.5103 C   0  0  0  0  0  0
  -21.0810   26.7929  -10.3496 N   0  0  0  0  0  0
  -21.7893   26.4805   -9.2415 C   0  0  0  0  0  0
  -22.8867   25.6382   -9.2371 C   0  0  0  0  0  0
  -23.2938   25.0929  -10.4461 C   0  0  0  0  0  0
  -24.3316   22.7871  -13.3522 C   0  0  0  0  0  0
  -25.1013   23.4869  -14.0137 O   0  0  0  0  0  0
  -24.7120   21.3860  -13.0218 C   0  0  0  0  0  0
  -24.0842   20.6751  -12.0001 C   0  0  0  0  0  0
  -24.6338   19.5463  -10.4438 C   0  0  0  0  0  0
  -25.6476   19.2823  -10.4481 C   0  0  0  0  0  0
  -26.1535   20.1233  -12.1400 C   0  0  0  0  0  0
  -25.9075   20.9948  -13.1936 N   0  0  0  0  0  0
  -21.3848   17.5213  -14.3133 C   0  0  0  0  0  0
  -22.7663   17.3381  -13.9199 O   0  0  0  0  0  0
  -23.5614   18.4587  -14.3051 C   0  0  0  0  0  0
  -21.2267   17.9154  -16.2852 C   0  0  0  0  0  0
  -19.7536   19.2584  -16.6752 C   0  0  0  0  0  0
  -20.9557   17.0628  -11.2210 H   0  0  0  0  0  0
  1  2  1  0  0  0
  2  3  1  0  0  0
  3  4  2  0  0  0
  3 33  1  0  0  0
  4  5  1  0  0  0
  5  6  1  0  0  0
  5 29  2  0  0  0
  6  7  1  0  0  0
  6 34  1  0  0  0
  7  8  2  0  0  0
  7  9  1  0  0  0
  9 10  1  0  0  0
 10 11  1  0  0  0
 10 24  1  0  0  0
 11 12  2  0  0  0
 11 13  1  0  0  0
 13 14  1  0  0  0
 13 21  1  0  0  0
 14 15  1  0  0  0
 15 16  2  0  0  0
 15 20  1  0  0  0
 16 17  1  0  0  0
 17 18  2  0  0  0
 18 19  1  0  0  0
 19 20  2  0  0  0
 21 22  2  0  0  0
 21 23  1  0  0  0
 23 24  2  0  0  0
 23 28  1  0  0  0
 24 25  1  0  0  0
 25 26  2  0  0  0
 26 27  1  0  0  0
 27 28  2  0  0  0
 29 30  1  0  0  0
 29 32  1  0  0  0
 30 31  1  0  0  0
 32 33  2  0  0  0
M  END
>  <CHROM.0>
-65.08539691,-71.40090798,-44.81411280,64.39376061,-31.85336356,175.80903533
-36.26537574,-160.37222606

>  <CHROM.1>
158.76759935,48.61329812,103.56279517,151.38809998,-48.61276155,131.28793028
93.87190149,-22.16374726,21.28422387,-12.57213616,-1.16128417,0.42058851
0.34697873

>  <Name>
F2437-0207

>  <RI>
4.27687e+07

>  <Rbt.Current_Directory>
/home/adria/Escritorio/rDock_CMTR_LC/2pxcA_model/inputs_sah

>  <Rbt.Executable>
rbdock ($Id: //depot/dev/client3/rdock/2013.1/src/exe/rbdock.cxx#4 $)

>  <Rbt.Library>
libRbt.so (2013.1, Build901 2013/11/27)

>  <Rbt.Parameter_File>
/home/adria/Escritorio/rDock_2013.1_src/data/scripts/dock.prm

>  <Rbt.Receptor>
sah_rdock.prm

>  <SCORE>
-248.783

>  <SCORE.INTER>
-15.8284

>  <SCORE.INTER.CONST>
1

>  <SCORE.INTER.POLAR>
-2.07276

>  <SCORE.INTER.REPUL>
0.310071

>  <SCORE.INTER.ROT>
7

>  <SCORE.INTER.VDW>
-22.7314

>  <SCORE.INTER.norm>
-0.479649

>  <SCORE.INTRA>
-225.446

>  <SCORE.INTRA.DIHEDRAL>
11.1747

>  <SCORE.INTRA.DIHEDRAL.0>
6.41702

>  <SCORE.INTRA.POLAR>
0

>  <SCORE.INTRA.POLAR.0>
0

>  <SCORE.INTRA.REPUL>
0

>  <SCORE.INTRA.REPUL.0>
0

>  <SCORE.INTRA.VDW>
-231.034

>  <SCORE.INTRA.VDW.0>
230.844

>  <SCORE.INTRA.norm>
-6.83171

>  <SCORE.RESTR>
0

>  <SCORE.RESTR.CAVITY>
0

>  <SCORE.RESTR.norm>
0

>  <SCORE.SYSTEM>
-7.50845

>  <SCORE.SYSTEM.CONST>
0

>  <SCORE.SYSTEM.DIHEDRAL>
6.43995

>  <SCORE.SYSTEM.POLAR>
-4.00348

>  <SCORE.SYSTEM.REPUL>
0.0355557

>  <SCORE.SYSTEM.VDW>
2.70563

>  <SCORE.SYSTEM.norm>
-0.227529

>  <SCORE.heavy>
33

>  <SCORE.norm>
-7.53888

$$$$
F2437-0207
  rDOCK(R)          3D
libRbt.so/2013.1/901 2013/11/27
 34 37  0  0  0  0  0  0  0  0999 V2000
  -24.8217   19.0167  -16.7965 C   0  0  0  0  0  0
  -24.1645   19.3359  -15.5540 O   0  0  0  0  0  0
  -22.8835   18.7328  -15.2405 C   0  0  0  0  0  0
  -22.2118   19.7200  -13.6154 C   0  0  0  0  0  0
  -20.2386   20.3730  -13.9385 C   0  0  0  0  0  0
  -19.4622   20.9750  -13.0053 N   0  0  0  0  0  0
  -20.0057   21.9867  -12.2996 C   0  0  0  0  0  0
  -19.4753   22.3996  -11.2762 O   0  0  0  0  0  0
  -21.4020   22.3772  -12.7734 C   0  0  0  0  0  0
  -22.4162   23.0511  -11.7461 N   0  3  0  0  0  0
  -23.6874   23.2569  -12.3434 C   0  0  0  0  0  0
  -23.8468   23.0899  -13.5569 O   0  0  0  0  0  0
  -24.6798   23.7262  -11.5116 N   0  3  0  0  0  0
  -26.0491   23.7603  -12.0235 C   0  0  0  0  0  0
  -26.4838   22.4107  -12.5266 C   0  0  0  0  0  0
  -26.7138   22.1932  -13.8795 C   0  0  0  0  0  0
  -27.1643   21.0246  -14.3855 N   0  0  0  0  0  0
  -27.4117   20.0333  -13.5005 C   0  0  0  0  0  0
  -27.2319   20.1538  -12.1342 C   0  0  0  0  0  0
  -26.7543   21.3606  -11.6442 C   0  0  0  0  0  0
  -24.4689   24.1620  -10.2091 C   0  0  0  0  0  0
  -25.4048   24.5131   -9.4877 O   0  0  0  0  0  0
  -23.0683   24.3554   -9.7423 C   0  0  0  0  0  0
  -21.9888   24.3264  -10.6239 C   0  0  0  0  0  0
  -20.3708   25.4390  -11.0018 C   0  0  0  0  0  0
  -20.1757   26.1656  -10.2727 C   0  0  0  0  0  0
  -21.6295   25.7285   -9.0393 C   0  0  0  0  0  0
  -22.8294   25.0959   -8.7391 N   0  0  0  0  0  0
  -19.3084   19.6744  -15.5768 C   0  0  0  0  0  0
  -17.9508   19.3593  -15.1839 O   0  0  0  0  0  0
  -17.0208   19.7583  -16.1900 C   0  0  0  0  0  0
  -19.9570   18.4433  -17.0370 C   0  0  0  0  0  0
  -21.9217   17.9760  -16.8191 C   0  0  0  0  0  0
  -18.5256   20.6116  -12.8656 H   0  0  0  0  0  0
  1  2  1  0  0  0
  2  3  1  0  0  0
  3  4  2  0  0  0
  3 33  1  0  0  0
  4  5  1  0  0  0
  5  6  1  0  0  0
  5 29  2  0  0  0
  6  7  1  0  0  0
  6 34  1  0  0  0
  7  8  2  0  0  0
  7  9  1  0  0  0
  9 10  1  0  0  0
 10 11  1  0  0  0
 10 24  1  0  0  0
 11 12  2  0  0  0
 11 13  1  0  0  0
 13 14  1  0  0  0
 13 21  1  0  0  0
 14 15  1  0  0  0
 15 16  2  0  0  0
 15 20  1  0  0  0
 16 17  1  0  0  0
 17 18  2  0  0  0
 18 19  1  0  0  0
 19 20  2  0  0  0
 21 22  2  0  0  0
 21 23  1  0  0  0
 23 24  2  0  0  0
 23 28  1  0  0  0
 24 25  1  0  0  0
 25 26  2  0  0  0
 26 27  1  0  0  0
 27 28  2  0  0  0
 29 30  1  0  0  0
 29 32  1  0  0  0
 30 31  1  0  0  0
 32 33  2  0  0  0
M  END
>  <CHROM.0>
-62.07428742,-69.30145691,111.08518156,67.02630374,-31.75571335,67.34711111
82.04528977,-159.84106709

>  <CHROM.1>
169.71327139,-47.79177261,153.66485702,-175.98609772,54.86416047,-112.36875103
-139.13321433,-22.79237132,21.91621946,-12.87163813,1.08729618,-0.04361733
-2.35718838

>  <Name>
F2437-0207

>  <RI>
4.27687e+07

>  <Rbt.Current_Directory>
/home/adria/Escritorio/rDock_CMTR_LC/2pxcA_model/inputs_sah

>  <Rbt.Executable>
rbdock ($Id: //depot/dev/client3/rdock/2013.1/src/exe/rbdock.cxx#4 $)

>  <Rbt.Library>
libRbt.so (2013.1, Build901 2013/11/27)

>  <Rbt.Parameter_File>
/home/adria/Escritorio/rDock_2013.1_src/data/scripts/dock.prm

>  <Rbt.Receptor>
sah_rdock.prm

>  <SCORE>
-240.25

>  <SCORE.INTER>
-3.52514

>  <SCORE.INTER.CONST>
1

>  <SCORE.INTER.POLAR>
-0.160318

>  <SCORE.INTER.REPUL>
0.189971

>  <SCORE.INTER.ROT>
7

>  <SCORE.INTER.VDW>
-16.3299

>  <SCORE.INTER.norm>
-0.106823

>  <SCORE.INTRA>
-229.769

>  <SCORE.INTRA.DIHEDRAL>
6.32466

>  <SCORE.INTRA.DIHEDRAL.0>
6.41702

>  <SCORE.INTRA.POLAR>
0

>  <SCORE.INTRA.POLAR.0>
0

>  <SCORE.INTRA.REPUL>
0.0279124

>  <SCORE.INTRA.REPUL.0>
0

>  <SCORE.INTRA.VDW>
-233.071

>  <SCORE.INTRA.VDW.0>
230.844

>  <SCORE.INTRA.norm>
-6.96269

>  <SCORE.RESTR>
0.160451

>  <SCORE.RESTR.CAVITY>
0.160451

>  <SCORE.RESTR.norm>
0.00486216

>  <SCORE.SYSTEM>
-7.11679

>  <SCORE.SYSTEM.CONST>
0

>  <SCORE.SYSTEM.DIHEDRAL>
9.13158

>  <SCORE.SYSTEM.POLAR>
-4.50505

>  <SCORE.SYSTEM.REPUL>
0.0312732

>  <SCORE.SYSTEM.VDW>
3.47823

>  <SCORE.SYSTEM.norm>
-0.21566

>  <SCORE.heavy>
33

>  <SCORE.norm>
-7.28031

$$$$
F2437-0207
  rDOCK(R)          3D
libRbt.so/2013.1/901 2013/11/27
 34 37  0  0  0  0  0  0  0  0999 V2000
  -15.6162   19.5329  -16.7389 C   0  0  0  0  0  0
  -16.5851   20.3136  -16.0116 O   0  0  0  0  0  0
  -17.9645   19.8709  -15.9454 C   0  0  0  0  0  0
  -18.6743   20.5932  -14.2016 C   0  0  0  0  0  0
  -19.6007   19.0513  -13.1114 C   0  0  0  0  0  0
  -20.2703   19.2245  -11.9462 N   0  0  0  0  0  0
  -21.3546   20.0250  -11.9626 C   0  0  0  0  0  0
  -22.1550   20.0237  -11.0360 O   0  0  0  0  0  0
  -21.5761   20.7214  -13.3015 C   0  0  0  0  0  0
  -22.5342   21.9923  -13.3726 N   0  3  0  0  0  0
  -21.9351   23.1195  -12.7518 C   0  0  0  0  0  0
  -20.8949   22.9981  -12.0966 O   0  0  0  0  0  0
  -22.6237   24.3076  -12.8569 N   0  3  0  0  0  0
  -21.9570   25.5320  -12.4160 C   0  0  0  0  0  0
  -21.3445   25.3661  -11.0519 C   0  0  0  0  0  0
  -19.9660   25.2993  -10.8914 C   0  0  0  0  0  0
  -19.3583   25.0892   -9.7035 N   0  0  0  0  0  0
  -20.1621   24.9223   -8.6298 C   0  0  0  0  0  0
  -21.5440   24.9540   -8.6859 C   0  0  0  0  0  0
  -22.1405   25.1862   -9.9167 C   0  0  0  0  0  0
  -23.9116   24.4239  -13.3656 C   0  0  0  0  0  0
  -24.4565   25.5220  -13.4949 O   0  0  0  0  0  0
  -24.6961   23.1812  -13.6051 C   0  0  0  0  0  0
  -24.2690   21.9400  -13.1356 C   0  0  0  0  0  0
  -25.0591   20.3931  -12.1450 C   0  0  0  0  0  0
  -26.1031   20.4297  -12.0640 C   0  0  0  0  0  0
  -26.4110   22.0654  -13.0914 C   0  0  0  0  0  0
  -25.9617   23.2353  -13.6909 N   0  0  0  0  0  0
  -19.8836   17.3072  -14.0680 C   0  0  0  0  0  0
  -21.2034   16.8384  -13.7004 O   0  0  0  0  0  0
  -22.2168   17.5666  -14.3927 C   0  0  0  0  0  0
  -19.3938   16.7352  -15.9392 C   0  0  0  0  0  0
  -18.3280   18.1627  -16.9149 C   0  0  0  0  0  0
  -19.9391   18.7178  -11.1323 H   0  0  0  0  0  0
  1  2  1  0  0  0
  2  3  1  0  0  0
  3  4  2  0  0  0
  3 33  1  0  0  0
  4  5  1  0  0  0
  5  6  1  0  0  0
  5 29  2  0  0  0
  6  7  1  0  0  0
  6 34  1  0  0  0
  7  8  2  0  0  0
  7  9  1  0  0  0
  9 10  1  0  0  0
 10 11  1  0  0  0
 10 24  1  0  0  0
 11 12  2  0  0  0
 11 13  1  0  0  0
 13 14  1  0  0  0
 13 21  1  0  0  0
 14 15  1  0  0  0
 15 16  2  0  0  0
 15 20  1  0  0  0
 16 17  1  0  0  0
 17 18  2  0  0  0
 18 19  1  0  0  0
 19 20  2  0  0  0
 21 22  2  0  0  0
 21 23  1  0  0  0
 23 24  2  0  0  0
 23 28  1  0  0  0
 24 25  1  0  0  0
 25 26  2  0  0  0
 26 27  1  0  0  0
 27 28  2  0  0  0
 29 30  1  0  0  0
 29 32  1  0  0  0
 30 31  1  0  0  0
 32 33  2  0  0  0
M  END
>  <CHROM.0>
-65.31707688,67.03841795,-8.68918449,59.80168508,-30.78483720,179.31915048
-36.96564034,-53.20504451

>  <CHROM.1>
151.50620611,61.18647878,-162.58521473,71.39545542,-48.77156010,108.90202767
76.04768000,-21.48253172,21.66160549,-12.93470158,-1.02171384,0.07862854
0.51429660

>  <Name>
F2437-0207

>  <RI>
4.27687e+07

>  <Rbt.Current_Directory>
/home/adria/Escritorio/rDock_CMTR_LC/2pxcA_model/inputs_sah

>  <Rbt.Executable>
rbdock ($Id: //depot/dev/client3/rdock/2013.1/src/exe/rbdock.cxx#4 $)

>  <Rbt.Library>
libRbt.so (2013.1, Build901 2013/11/27)

>  <Rbt.Parameter_File>
/home/adria/Escritorio/rDock_2013.1_src/data/scripts/dock.prm

>  <Rbt.Receptor>
sah_rdock.prm

>  <SCORE>
-242.329

>  <SCORE.INTER>
-11.5433

>  <SCORE.INTER.CONST>
1

>  <SCORE.INTER.POLAR>
-1.30919

>  <SCORE.INTER.REPUL>
0.654731

>  <SCORE.INTER.ROT>
7

>  <SCORE.INTER.VDW>
-22.7657

>  <SCORE.INTER.norm>
-0.349798

>  <SCORE.INTRA>
-226.387

>  <SCORE.INTRA.DIHEDRAL>
12.6124

>  <SCORE.INTRA.DIHEDRAL.0>
6.41702

>  <SCORE.INTRA.POLAR>
0

>  <SCORE.INTRA.POLAR.0>
0

>  <SCORE.INTRA.REPUL>
0

>  <SCORE.INTRA.REPUL.0>
0

>  <SCORE.INTRA.VDW>
-232.693

>  <SCORE.INTRA.VDW.0>
230.844

>  <SCORE.INTRA.norm>
-6.8602

>  <SCORE.RESTR>
0

>  <SCORE.RESTR.CAVITY>
0

>  <SCORE.RESTR.norm>
0

>  <SCORE.SYSTEM>
-4.39928

>  <SCORE.SYSTEM.CONST>
0

>  <SCORE.SYSTEM.DIHEDRAL>
11.4845

>  <SCORE.SYSTEM.POLAR>
-3.94753

>  <SCORE.SYSTEM.REPUL>
0.00356129

>  <SCORE.SYSTEM.VDW>
3.26227

>  <SCORE.SYSTEM.norm>
-0.133311

>  <SCORE.heavy>
33

>  <SCORE.norm>
-7.34331

$$$$
F2437-0207
  rDOCK(R)          3D
libRbt.so/2013.1/901 2013/11/27
 34 37  0  0  0  0  0  0  0  0999 V2000
  -24.6999   19.1415   -8.0655 C   0  0  0  0  0  0
  -25.6213   19.9506   -8.8231 O   0  0  0  0  0  0
  -25.2630   20.3944  -10.1564 C   0  0  0  0  0  0
  -23.3658   21.0611  -10.0056 C   0  0  0  0  0  0
  -23.2120   22.9817  -10.8494 C   0  0  0  0  0  0
  -22.0531   23.6668  -11.0029 N   0  0  0  0  0  0
  -21.3559   23.4672  -12.1391 C   0  0  0  0  0  0
  -20.4560   24.2285  -12.4703 O   0  0  0  0  0  0
  -21.9430   22.3762  -13.0290 C   0  0  0  0  0  0
  -21.2626   20.9358  -13.0521 N   0  3  0  0  0  0
  -20.0118   20.9720  -13.7224 C   0  0  0  0  0  0
  -19.6611   21.9791  -14.3459 O   0  0  0  0  0  0
  -19.2778   19.8069  -13.7007 N   0  3  0  0  0  0
  -17.9025   19.8494  -14.1955 C   0  0  0  0  0  0
  -17.7794   19.1867  -15.5406 C   0  0  0  0  0  0
  -18.7669   18.3274  -16.0062 C   0  0  0  0  0  0
  -18.6861   17.6547  -17.1748 N   0  0  0  0  0  0
  -17.5626   17.8351  -17.9044 C   0  0  0  0  0  0
  -16.5154   18.6541  -17.5220 C   0  0  0  0  0  0
  -16.6322   19.3439  -16.3240 C   0  0  0  0  0  0
  -19.7543   18.5898  -13.2288 C   0  0  0  0  0  0
  -19.0319   17.5924  -13.1746 O   0  0  0  0  0  0
  -21.2087   18.4609  -12.9367 C   0  0  0  0  0  0
  -22.1259   19.4363  -13.3249 C   0  0  0  0  0  0
  -23.9009   19.5008  -14.2435 C   0  0  0  0  0  0
  -24.3578   18.5640  -14.3500 C   0  0  0  0  0  0
  -23.0140   17.4851  -13.4247 C   0  0  0  0  0  0
  -21.7466   17.3122  -12.8828 N   0  0  0  0  0  0
  -24.8027   23.6506  -11.8786 C   0  0  0  0  0  0
  -24.2881   24.3122  -13.0594 O   0  0  0  0  0  0
  -23.7551   25.5959  -12.7360 C   0  0  0  0  0  0
  -26.5960   22.7986  -12.2345 C   0  0  0  0  0  0
  -26.8054   21.0323  -11.2538 C   0  0  0  0  0  0
  -21.7888   24.3163  -10.2701 H   0  0  0  0  0  0
  1  2  1  0  0  0
  2  3  1  0  0  0
  3  4  2  0  0  0
  3 33  1  0  0  0
  4  5  1  0  0  0
  5  6  1  0  0  0
  5 29  2  0  0  0
  6  7  1  0  0  0
  6 34  1  0  0  0
  7  8  2  0  0  0
  7  9  1  0  0  0
  9 10  1  0  0  0
 10 11  1  0  0  0
 10 24  1  0  0  0
 11 12  2  0  0  0
 11 13  1  0  0  0
 13 14  1  0  0  0
 13 21  1  0  0  0
 14 15  1  0  0  0
 15 16  2  0  0  0
 15 20  1  0  0  0
 16 17  1  0  0  0
 17 18  2  0  0  0
 18 19  1  0  0  0
 19 20  2  0  0  0
 21 22  2  0  0  0
 21 23  1  0  0  0
 23 24  2  0  0  0
 23 28  1  0  0  0
 24 25  1  0  0  0
 25 26  2  0  0  0
 26 27  1  0  0  0
 27 28  2  0  0  0
 29 30  1  0  0  0
 29 32  1  0  0  0
 30 31  1  0  0  0
 32 33  2  0  0  0
M  END
>  <CHROM.0>
-60.70439925,-165.56864062,-36.15127525,-61.19379066,-30.33362341,-58.51013142
-156.09033022,-41.78648681

>  <CHROM.1>
-45.46523375,88.19392323,-102.38020150,-71.45478436,-106.22964334,-17.41849614
-76.02458363,-21.62802349,20.54205832,-13.13336974,2.72923268,0.63416830
0.02384304

>  <Name>
F2437-0207

>  <RI>
4.27687e+07

>  <Rbt.Current_Directory>
/home/adria/Escritorio/rDock_CMTR_LC/2pxcA_model/inputs_sah

>  <Rbt.Executable>
rbdock ($Id: //depot/dev/client3/rdock/2013.1/src/exe/rbdock.cxx#4 $)

>  <Rbt.Library>
libRbt.so (2013.1, Build901 2013/11/27)

>  <Rbt.Parameter_File>
/home/adria/Escritorio/rDock_2013.1_src/data/scripts/dock.prm

>  <Rbt.Receptor>
sah_rdock.prm

>  <SCORE>
-238.865

>  <SCORE.INTER>
-8.98255

>  <SCORE.INTER.CONST>
1

>  <SCORE.INTER.POLAR>
-0.688643

>  <SCORE.INTER.REPUL>
0.158035

>  <SCORE.INTER.ROT>
7

>  <SCORE.INTER.VDW>
-19.8313

>  <SCORE.INTER.norm>
-0.272199

>  <SCORE.INTRA>
-226

>  <SCORE.INTRA.DIHEDRAL>
15.1883

>  <SCORE.INTRA.DIHEDRAL.0>
6.41702

>  <SCORE.INTRA.POLAR>
0

>  <SCORE.INTRA.POLAR.0>
0

>  <SCORE.INTRA.REPUL>
0

>  <SCORE.INTRA.REPUL.0>
0

>  <SCORE.INTRA.VDW>
-233.594

>  <SCORE.INTRA.VDW.0>
230.844

>  <SCORE.INTRA.norm>
-6.84849

>  <SCORE.RESTR>
0

>  <SCORE.RESTR.CAVITY>
0

>  <SCORE.RESTR.norm>
0

>  <SCORE.SYSTEM>
-3.88194

>  <SCORE.SYSTEM.CONST>
0

>  <SCORE.SYSTEM.DIHEDRAL>
9.12699

>  <SCORE.SYSTEM.POLAR>
-3.43288

>  <SCORE.SYSTEM.REPUL>
0.0326539

>  <SCORE.SYSTEM.VDW>
3.06308

>  <SCORE.SYSTEM.norm>
-0.117635

>  <SCORE.heavy>
33

>  <SCORE.norm>
-7.23832

$$$$
F2437-0207
  rDOCK(R)          3D
libRbt.so/2013.1/901 2013/11/27
 34 37  0  0  0  0  0  0  0  0999 V2000
  -16.9609   19.3109  -15.9502 C   0  0  0  0  0  0
  -17.8337   18.9384  -14.8654 O   0  0  0  0  0  0
  -19.2441   19.2699  -14.9285 C   0  0  0  0  0  0
  -19.9879   18.7869  -13.1175 C   0  0  0  0  0  0
  -21.7010   17.5873  -13.3432 C   0  0  0  0  0  0
  -22.4975   17.1799  -12.3255 N   0  0  0  0  0  0
  -23.4261   18.0466  -11.8744 C   0  0  0  0  0  0
  -24.3432   17.6721  -11.1548 O   0  0  0  0  0  0
  -23.3354   19.4256  -12.5200 C   0  0  0  0  0  0
  -24.2055   20.6233  -11.9313 N   0  3  0  0  0  0
  -23.7184   21.8783  -12.3814 C   0  0  0  0  0  0
  -22.6437   21.9561  -12.9856 O   0  0  0  0  0  0
  -24.4657   22.9806  -12.0303 N   0  3  0  0  0  0
  -24.1238   24.2666  -12.6364 C   0  0  0  0  0  0
  -23.0254   24.9598  -11.8770 C   0  0  0  0  0  0
  -22.5063   26.1706  -12.3184 C   0  0  0  0  0  0
  -21.4799   26.8106  -11.7173 N   0  0  0  0  0  0
  -20.9363   26.2080  -10.6364 C   0  0  0  0  0  0
  -21.3680   24.9960  -10.1280 C   0  0  0  0  0  0
  -22.4335   24.3685  -10.7569 C   0  0  0  0  0  0
  -25.5343   22.9517  -11.1425 C   0  0  0  0  0  0
  -26.2083   23.9580  -10.9127 O   0  0  0  0  0  0
  -25.7590   21.7175  -10.3405 C   0  0  0  0  0  0
  -24.8171   20.6910  -10.2912 C   0  0  0  0  0  0
  -23.9330   19.5749   -8.8872 C   0  0  0  0  0  0
  -24.3714   19.6595   -7.9395 C   0  0  0  0  0  0
  -25.8326   20.8720   -8.4093 C   0  0  0  0  0  0
  -26.4468   21.7688   -9.2746 N   0  0  0  0  0  0
  -22.4405   17.4022  -15.2022 C   0  0  0  0  0  0
  -23.8819   17.4831  -15.0883 O   0  0  0  0  0  0
  -24.5182   16.5697  -15.9810 C   0  0  0  0  0  0
  -21.7971   18.1574  -16.9583 C   0  0  0  0  0  0
  -20.0364   19.1503  -16.7582 C   0  0  0  0  0  0
  -22.3741   16.2344  -11.9797 H   0  0  0  0  0  0
  1  2  1  0  0  0
  2  3  1  0  0  0
  3  4  2  0  0  0
  3 33  1  0  0  0
  4  5  1  0  0  0
  5  6  1  0  0  0
  5 29  2  0  0  0
  6  7  1  0  0  0
  6 34  1  0  0  0
  7  8  2  0  0  0
  7  9  1  0  0  0
  9 10  1  0  0  0
 10 11  1  0  0  0
 10 24  1  0  0  0
 11 12  2  0  0  0
 11 13  1  0  0  0
 13 14  1  0  0  0
 13 21  1  0  0  0
 14 15  1  0  0  0
 15 16  2  0  0  0
 15 20  1  0  0  0
 16 17  1  0  0  0
 17 18  2  0  0  0
 18 19  1  0  0  0
 19 20  2  0  0  0
 21 22  2  0  0  0
 21 23  1  0  0  0
 23 24  2  0  0  0
 23 28  1  0  0  0
 24 25  1  0  0  0
 25 26  2  0  0  0
 26 27  1  0  0  0
 27 28  2  0  0  0
 29 30  1  0  0  0
 29 32  1  0  0  0
 30 31  1  0  0  0
 32 33  2  0  0  0
M  END
>  <CHROM.0>
179.93982976,-170.94272095,-129.50841253,-64.99327169,-29.70521759,179.66196119
83.81181517,-165.09778620

>  <CHROM.1>
-172.50773192,81.68783527,-170.29961956,162.96900854,-85.00042856,177.09908515
-141.39940493,-22.89121589,20.90522200,-12.36830173,-1.06693549,0.65267701
0.33354901

>  <Name>
F2437-0207

>  <RI>
4.27687e+07

>  <Rbt.Current_Directory>
/home/adria/Escritorio/rDock_CMTR_LC/2pxcA_model/inputs_sah

>  <Rbt.Executable>
rbdock ($Id: //depot/dev/client3/rdock/2013.1/src/exe/rbdock.cxx#4 $)

>  <Rbt.Library>
libRbt.so (2013.1, Build901 2013/11/27)

>  <Rbt.Parameter_File>
/home/adria/Escritorio/rDock_2013.1_src/data/scripts/dock.prm

>  <Rbt.Receptor>
sah_rdock.prm

>  <SCORE>
-250.046

>  <SCORE.INTER>
-17.8177

>  <SCORE.INTER.CONST>
1

>  <SCORE.INTER.POLAR>
-2.36333

>  <SCORE.INTER.REPUL>
0

>  <SCORE.INTER.ROT>
7

>  <SCORE.INTER.VDW>
-22.1824

>  <SCORE.INTER.norm>
-0.539932

>  <SCORE.INTRA>
-226.987

>  <SCORE.INTRA.DIHEDRAL>
14.2315

>  <SCORE.INTRA.DIHEDRAL.0>
6.41702

>  <SCORE.INTRA.POLAR>
0

>  <SCORE.INTRA.POLAR.0>
0

>  <SCORE.INTRA.REPUL>
0

>  <SCORE.INTRA.REPUL.0>
0

>  <SCORE.INTRA.VDW>
-234.102

>  <SCORE.INTRA.VDW.0>
230.844

>  <SCORE.INTRA.norm>
-6.87838

>  <SCORE.RESTR>
0

>  <SCORE.RESTR.CAVITY>
0

>  <SCORE.RESTR.norm>
0

>  <SCORE.SYSTEM>
-5.24193

>  <SCORE.SYSTEM.CONST>
0

>  <SCORE.SYSTEM.DIHEDRAL>
9.10129

>  <SCORE.SYSTEM.POLAR>
-4.17807

>  <SCORE.SYSTEM.VDW>
4.41286

>  <SCORE.SYSTEM.norm>
-0.158846

>  <SCORE.heavy>
33

>  <SCORE.norm>
-7.57716

$$$$
F2437-0207
  rDOCK(R)          3D
libRbt.so/2013.1/901 2013/11/27
 34 37  0  0  0  0  0  0  0  0999 V2000
  -21.0530   18.3924  -11.8575 C   0  0  0  0  0  0
  -22.2079   17.7260  -11.3101 O   0  0  0  0  0  0
  -23.4539   17.7168  -12.0520 C   0  0  0  0  0  0
  -22.9783   17.0269  -13.8862 C   0  0  0  0  0  0
  -23.7425   18.3202  -15.3586 C   0  0  0  0  0  0
  -23.6881   18.0890  -16.6926 N   0  0  0  0  0  0
  -22.5097   17.6865  -17.2087 C   0  0  0  0  0  0
  -22.4430   17.2087  -18.3341 O   0  0  0  0  0  0
  -21.3712   17.6819  -16.1937 C   0  0  0  0  0  0
  -19.8737   17.8866  -16.6975 N   0  3  0  0  0  0
  -19.1419   16.6720  -16.6320 C   0  0  0  0  0  0
  -19.6156   15.6818  -16.0655 O   0  0  0  0  0  0
  -17.8678   16.7024  -17.1542 N   0  3  0  0  0  0
  -17.1511   15.4358  -17.2971 C   0  0  0  0  0  0
  -17.6934   14.6210  -18.4397 C   0  0  0  0  0  0
  -16.9529   14.4385  -19.6011 C   0  0  0  0  0  0
  -17.4081   13.7717  -20.6841 N   0  0  0  0  0  0
  -18.6644   13.2782  -20.6113 C   0  0  0  0  0  0
  -19.4883   13.4201  -19.5091 C   0  0  0  0  0  0
  -18.9891   14.0970  -18.4058 C   0  0  0  0  0  0
  -17.2176   17.8593  -17.5660 C   0  0  0  0  0  0
  -16.1001   17.8204  -18.0850 O   0  0  0  0  0  0
  -17.8234   19.1755  -17.2230 C   0  0  0  0  0  0
  -18.8859   19.2849  -16.3271 C   0  0  0  0  0  0
  -19.3590   20.4045  -14.7393 C   0  0  0  0  0  0
  -18.7300   21.2307  -14.6001 C   0  0  0  0  0  0
  -17.5923   20.9904  -16.1729 C   0  0  0  0  0  0
  -17.1080   20.2244  -17.2259 N   0  0  0  0  0  0
  -25.0042   19.7559  -14.7390 C   0  0  0  0  0  0
  -26.0693   19.8268  -15.7175 O   0  0  0  0  0  0
  -25.7320   20.7202  -16.7778 C   0  0  0  0  0  0
  -25.6691   20.2195  -12.8920 C   0  0  0  0  0  0
  -24.7756   19.0918  -11.4582 C   0  0  0  0  0  0
  -24.5439   18.2000  -17.2256 H   0  0  0  0  0  0
  1  2  1  0  0  0
  2  3  1  0  0  0
  3  4  2  0  0  0
  3 33  1  0  0  0
  4  5  1  0  0  0
  5  6  1  0  0  0
  5 29  2  0  0  0
  6  7  1  0  0  0
  6 34  1  0  0  0
  7  8  2  0  0  0
  7  9  1  0  0  0
  9 10  1  0  0  0
 10 11  1  0  0  0
 10 24  1  0  0  0
 11 12  2  0  0  0
 11 13  1  0  0  0
 13 14  1  0  0  0
 13 21  1  0  0  0
 14 15  1  0  0  0
 15 16  2  0  0  0
 15 20  1  0  0  0
 16 17  1  0  0  0
 17 18  2  0  0  0
 18 19  1  0  0  0
 19 20  2  0  0  0
 21 22  2  0  0  0
 21 23  1  0  0  0
 23 24  2  0  0  0
 23 28  1  0  0  0
 24 25  1  0  0  0
 25 26  2  0  0  0
 26 27  1  0  0  0
 27 28  2  0  0  0
 29 30  1  0  0  0
 29 32  1  0  0  0
 30 31  1  0  0  0
 32 33  2  0  0  0
M  END
>  <CHROM.0>
-176.36963836,-75.22184285,-129.00798091,-144.91600519,40.64478419,177.08955615
-156.75282546,-163.86886251

>  <CHROM.1>
52.62732165,-46.98738339,-152.49831309,-107.27694818,73.70426979,109.64170279
-87.83761097,-20.53509338,17.65528675,-16.27973293,-2.39579023,-0.18162772
-2.41641763

>  <Name>
F2437-0207

>  <RI>
4.27687e+07

>  <Rbt.Current_Directory>
/home/adria/Escritorio/rDock_CMTR_LC/2pxcA_model/inputs_sah

>  <Rbt.Executable>
rbdock ($Id: //depot/dev/client3/rdock/2013.1/src/exe/rbdock.cxx#4 $)

>  <Rbt.Library>
libRbt.so (2013.1, Build901 2013/11/27)

>  <Rbt.Parameter_File>
/home/adria/Escritorio/rDock_2013.1_src/data/scripts/dock.prm

>  <Rbt.Receptor>
sah_rdock.prm

>  <SCORE>
-226.618

>  <SCORE.INTER>
-8.59317

>  <SCORE.INTER.CONST>
1

>  <SCORE.INTER.POLAR>
-1.52595

>  <SCORE.INTER.REPUL>
0.779482

>  <SCORE.INTER.ROT>
7

>  <SCORE.INTER.VDW>
-19.7024

>  <SCORE.INTER.norm>
-0.260399

>  <SCORE.INTRA>
-226.559

>  <SCORE.INTRA.DIHEDRAL>
12.2283

>  <SCORE.INTRA.DIHEDRAL.0>
6.41702

>  <SCORE.INTRA.POLAR>
0

>  <SCORE.INTRA.POLAR.0>
0

>  <SCORE.INTRA.REPUL>
0

>  <SCORE.INTRA.REPUL.0>
0

>  <SCORE.INTRA.VDW>
-232.673

>  <SCORE.INTRA.VDW.0>
230.844

>  <SCORE.INTRA.norm>
-6.86543

>  <SCORE.RESTR>
0

>  <SCORE.RESTR.CAVITY>
0

>  <SCORE.RESTR.norm>
0

>  <SCORE.SYSTEM>
8.53452

>  <SCORE.SYSTEM.CONST>
0

>  <SCORE.SYSTEM.DIHEDRAL>
12.3634

>  <SCORE.SYSTEM.POLAR>
-4.26002

>  <SCORE.SYSTEM.REPUL>
0.0422595

>  <SCORE.SYSTEM.VDW>
16.6256

>  <SCORE.SYSTEM.norm>
0.258622

>  <SCORE.heavy>
33

>  <SCORE.norm>
-6.86721

$$$$
F2437-0207
  rDOCK(R)          3D
libRbt.so/2013.1/901 2013/11/27
 34 37  0  0  0  0  0  0  0  0999 V2000
  -21.7000   18.1781  -16.5550 C   0  0  0  0  0  0
  -22.3404   17.1425  -15.7837 O   0  0  0  0  0  0
  -22.0248   16.9924  -14.3762 C   0  0  0  0  0  0
  -23.8062   16.9233  -13.4337 C   0  0  0  0  0  0
  -23.8266   18.2944  -11.8387 C   0  0  0  0  0  0
  -24.8350   18.4210  -10.9425 N   0  0  0  0  0  0
  -25.6745   19.4650  -11.0910 C   0  0  0  0  0  0
  -26.7458   19.5035  -10.4993 O   0  0  0  0  0  0
  -25.2591   20.4264  -12.1999 C   0  0  0  0  0  0
  -24.9466   21.9467  -11.8403 N   0  3  0  0  0  0
  -23.6585   22.3264  -12.3002 C   0  0  0  0  0  0
  -22.8714   21.4801  -12.7363 O   0  0  0  0  0  0
  -23.3274   23.6547  -12.1489 N   0  3  0  0  0  0
  -22.1033   24.1369  -12.7872 C   0  0  0  0  0  0
  -21.1276   24.6725  -11.7750 C   0  0  0  0  0  0
  -21.1957   25.9924  -11.3465 C   0  0  0  0  0  0
  -20.3130   26.5494  -10.4890 N   0  0  0  0  0  0
  -19.3080   25.7586  -10.0513 C   0  0  0  0  0  0
  -19.1416   24.4386  -10.4302 C   0  0  0  0  0  0
  -20.0715   23.8888  -11.3006 C   0  0  0  0  0  0
  -24.0865   24.5747  -11.4360 C   0  0  0  0  0  0
  -23.7748   25.7663  -11.3861 O   0  0  0  0  0  0
  -25.2039   24.0711  -10.5905 C   0  0  0  0  0  0
  -25.3692   22.7131  -10.3229 C   0  0  0  0  0  0
  -25.7019   21.5613   -8.7225 C   0  0  0  0  0  0
  -25.9670   22.0969   -7.8620 C   0  0  0  0  0  0
  -25.9803   23.8926   -8.6373 C   0  0  0  0  0  0
  -25.6623   24.7895   -9.6494 N   0  0  0  0  0  0
  -22.0752   19.1542  -11.3589 C   0  0  0  0  0  0
  -22.0069   19.1842   -9.9127 O   0  0  0  0  0  0
  -22.7384   20.2916   -9.3883 C   0  0  0  0  0  0
  -20.2426   18.9596  -12.1787 C   0  0  0  0  0  0
  -20.2731   17.7863  -13.8364 C   0  0  0  0  0  0
  -24.9232   17.7064  -10.2281 H   0  0  0  0  0  0
  1  2  1  0  0  0
  2  3  1  0  0  0
  3  4  2  0  0  0
  3 33  1  0  0  0
  4  5  1  0  0  0
  5  6  1  0  0  0
  5 29  2  0  0  0
  6  7  1  0  0  0
  6 34  1  0  0  0
  7  8  2  0  0  0
  7  9  1  0  0  0
  9 10  1  0  0  0
 10 11  1  0  0  0
 10 24  1  0  0  0
 11 12  2  0  0  0
 11 13  1  0  0  0
 13 14  1  0  0  0
 13 21  1  0  0  0
 14 15  1  0  0  0
 15 16  2  0  0  0
 15 20  1  0  0  0
 16 17  1  0  0  0
 17 18  2  0  0  0
 18 19  1  0  0  0
 19 20  2  0  0  0
 21 22  2  0  0  0
 21 23  1  0  0  0
 23 24  2  0  0  0
 23 28  1  0  0  0
 24 25  1  0  0  0
 25 26  2  0  0  0
 26 27  1  0  0  0
 27 28  2  0  0  0
 29 30  1  0  0  0
 29 32  1  0  0  0
 30 31  1  0  0  0
 32 33  2  0  0  0
M  END
>  <CHROM.0>
40.76722948,-71.70672661,71.66217222,-67.00001528,168.47834869,56.86145018
83.91398267,-163.83018847

>  <CHROM.1>
129.79797756,-102.98423302,-119.74732062,125.72469027,-119.20407753,-86.35175880
-81.60340403,-23.14083931,21.62622010,-11.51617986,-1.59760031,0.49080223
0.41254999

>  <Name>
F2437-0207

>  <RI>
4.27687e+07

>  <Rbt.Current_Directory>
/home/adria/Escritorio/rDock_CMTR_LC/2pxcA_model/inputs_sah

>  <Rbt.Executable>
rbdock ($Id: //depot/dev/client3/rdock/2013.1/src/exe/rbdock.cxx#4 $)

>  <Rbt.Library>
libRbt.so (2013.1, Build901 2013/11/27)

>  <Rbt.Parameter_File>
/home/adria/Escritorio/rDock_2013.1_src/data/scripts/dock.prm

>  <Rbt.Receptor>
sah_rdock.prm

>  <SCORE>
-240.608

>  <SCORE.INTER>
-16.7695

>  <SCORE.INTER.CONST>
1

>  <SCORE.INTER.POLAR>
-2.15721

>  <SCORE.INTER.REPUL>
0.0256467

>  <SCORE.INTER.ROT>
7

>  <SCORE.INTER.VDW>
-21.9633

>  <SCORE.INTER.norm>
-0.508168

>  <SCORE.INTRA>
-225.659

>  <SCORE.INTRA.DIHEDRAL>
16.9545

>  <SCORE.INTRA.DIHEDRAL.0>
6.41702

>  <SCORE.INTRA.POLAR>
0

>  <SCORE.INTRA.POLAR.0>
0

>  <SCORE.INTRA.REPUL>
0

>  <SCORE.INTRA.REPUL.0>
0

>  <SCORE.INTRA.VDW>
-234.136

>  <SCORE.INTRA.VDW.0>
230.844

>  <SCORE.INTRA.norm>
-6.83814

>  <SCORE.RESTR>
0.00396395

>  <SCORE.RESTR.CAVITY>
0.00396395

>  <SCORE.RESTR.norm>
0.00012012

>  <SCORE.SYSTEM>
1.81587

>  <SCORE.SYSTEM.CONST>
0

>  <SCORE.SYSTEM.DIHEDRAL>
5.16403

>  <SCORE.SYSTEM.POLAR>
-3.86298

>  <SCORE.SYSTEM.REPUL>
0.156744

>  <SCORE.SYSTEM.VDW>
11.5843

>  <SCORE.SYSTEM.norm>
0.0550263

>  <SCORE.heavy>
33

>  <SCORE.norm>
-7.29116

$$$$
F2437-0207
  rDOCK(R)          3D
libRbt.so/2013.1/901 2013/11/27
 34 37  0  0  0  0  0  0  0  0999 V2000
  -19.7281   25.5242  -10.4431 C   0  0  0  0  0  0
  -20.7145   26.4591   -9.9630 O   0  0  0  0  0  0
  -22.1176   26.2412  -10.2576 C   0  0  0  0  0  0
  -22.7247   24.8300   -8.9513 C   0  0  0  0  0  0
  -23.7183   23.2850   -9.9761 C   0  0  0  0  0  0
  -24.3394   22.2384   -9.3803 N   0  0  0  0  0  0
  -24.1953   21.0232   -9.9453 C   0  0  0  0  0  0
  -24.4946   20.0038   -9.3367 O   0  0  0  0  0  0
  -23.4397   21.0543  -11.2700 C   0  0  0  0  0  0
  -22.7147   19.7336  -11.7878 N   0  3  0  0  0  0
  -21.4232   20.0264  -12.2991 C   0  0  0  0  0  0
  -21.0627   21.1962  -12.4653 O   0  0  0  0  0  0
  -20.6563   18.9432  -12.6671 N   0  3  0  0  0  0
  -19.2527   19.1754  -13.0048 C   0  0  0  0  0  0
  -19.0792   19.4688  -14.4702 C   0  0  0  0  0  0
  -18.7381   20.7427  -14.9078 C   0  0  0  0  0  0
  -18.6287   21.0844  -16.2100 N   0  0  0  0  0  0
  -18.8865   20.1159  -17.1170 C   0  0  0  0  0  0
  -19.2497   18.8229  -16.7856 C   0  0  0  0  0  0
  -19.3400   18.4965  -15.4403 C   0  0  0  0  0  0
  -21.1254   17.6367  -12.7297 C   0  0  0  0  0  0
  -20.3775   16.6962  -13.0048 O   0  0  0  0  0  0
  -22.5914   17.4017  -12.6174 C   0  0  0  0  0  0
  -23.5103   18.4485  -12.6732 C   0  0  0  0  0  0
  -25.2203   18.8526  -13.6276 C   0  0  0  0  0  0
  -25.6396   18.0257  -14.1156 C   0  0  0  0  0  0
  -24.3283   16.6798  -13.5723 C   0  0  0  0  0  0
  -23.0956   16.3174  -13.0441 N   0  0  0  0  0  0
  -24.1455   23.6088  -11.9125 C   0  0  0  0  0  0
  -25.4819   23.0982  -12.1365 O   0  0  0  0  0  0
  -25.6010   22.5292  -13.4397 C   0  0  0  0  0  0
  -23.7516   25.1885  -13.1032 C   0  0  0  0  0  0
  -22.6232   26.5886  -12.1585 C   0  0  0  0  0  0
  -24.8523   22.4198   -8.5242 H   0  0  0  0  0  0
  1  2  1  0  0  0
  2  3  1  0  0  0
  3  4  2  0  0  0
  3 33  1  0  0  0
  4  5  1  0  0  0
  5  6  1  0  0  0
  5 29  2  0  0  0
  6  7  1  0  0  0
  6 34  1  0  0  0
  7  8  2  0  0  0
  7  9  1  0  0  0
  9 10  1  0  0  0
 10 11  1  0  0  0
 10 24  1  0  0  0
 11 12  2  0  0  0
 11 13  1  0  0  0
 13 14  1  0  0  0
 13 21  1  0  0  0
 14 15  1  0  0  0
 15 16  2  0  0  0
 15 20  1  0  0  0
 16 17  1  0  0  0
 17 18  2  0  0  0
 18 19  1  0  0  0
 19 20  2  0  0  0
 21 22  2  0  0  0
 21 23  1  0  0  0
 23 24  2  0  0  0
 23 28  1  0  0  0
 24 25  1  0  0  0
 25 26  2  0  0  0
 26 27  1  0  0  0
 27 28  2  0  0  0
 29 30  1  0  0  0
 29 32  1  0  0  0
 30 31  1  0  0  0
 32 33  2  0  0  0
M  END
>  <CHROM.0>
-58.24157103,69.04336485,-162.42612928,65.45760321,168.31854154,66.56664341
-37.55450719,-163.85116810

>  <CHROM.1>
78.71166514,-139.28557903,157.21183942,-136.63826299,-89.87391967,109.43331764
-144.78061293,-22.18806999,20.93150914,-12.52837908,-1.87418175,-0.51974016
-2.77947419

>  <Name>
F2437-0207

>  <RI>
4.27687e+07

>  <Rbt.Current_Directory>
/home/adria/Escritorio/rDock_CMTR_LC/2pxcA_model/inputs_sah

>  <Rbt.Executable>
rbdock ($Id: //depot/dev/client3/rdock/2013.1/src/exe/rbdock.cxx#4 $)

>  <Rbt.Library>
libRbt.so (2013.1, Build901 2013/11/27)

>  <Rbt.Parameter_File>
/home/adria/Escritorio/rDock_2013.1_src/data/scripts/dock.prm

>  <Rbt.Receptor>
sah_rdock.prm

>  <SCORE>
-240.321

>  <SCORE.INTER>
-12.1685

>  <SCORE.INTER.CONST>
1

>  <SCORE.INTER.POLAR>
-1.08406

>  <SCORE.INTER.REPUL>
0.384249

>  <SCORE.INTER.ROT>
7

>  <SCORE.INTER.VDW>
-22.804

>  <SCORE.INTER.norm>
-0.368743

>  <SCORE.INTRA>
-226.29

>  <SCORE.INTRA.DIHEDRAL>
12.6529

>  <SCORE.INTRA.DIHEDRAL.0>
6.41702

>  <SCORE.INTRA.POLAR>
0

>  <SCORE.INTRA.POLAR.0>
0

>  <SCORE.INTRA.REPUL>
0

>  <SCORE.INTRA.REPUL.0>
0

>  <SCORE.INTRA.VDW>
-232.617

>  <SCORE.INTRA.VDW.0>
230.844

>  <SCORE.INTRA.norm>
-6.85729

>  <SCORE.RESTR>
0

>  <SCORE.RESTR.CAVITY>
0

>  <SCORE.RESTR.norm>
0

>  <SCORE.SYSTEM>
-1.8622

>  <SCORE.SYSTEM.CONST>
0

>  <SCORE.SYSTEM.DIHEDRAL>
3.50328

>  <SCORE.SYSTEM.POLAR>
-3.55397

>  <SCORE.SYSTEM.VDW>
8.46964

>  <SCORE.SYSTEM.norm>
-0.0564305

>  <SCORE.heavy>
33

>  <SCORE.norm>
-7.28246

$$$$
F2437-0207
  rDOCK(R)          3D
libRbt.so/2013.1/901 2013/11/27
 34 37  0  0  0  0  0  0  0  0999 V2000
  -26.0717   18.5329  -16.0571 C   0  0  0  0  0  0
  -24.8666   19.1315  -16.5736 O   0  0  0  0  0  0
  -23.6236   18.3849  -16.5503 C   0  0  0  0  0  0
  -23.5248   17.5693  -14.7087 C   0  0  0  0  0  0
  -21.6553   17.9864  -13.8396 C   0  0  0  0  0  0
  -21.2297   17.4945  -12.6509 N   0  0  0  0  0  0
  -21.1022   18.3611  -11.6265 C   0  0  0  0  0  0
  -20.9833   17.9643  -10.4743 O   0  0  0  0  0  0
  -21.3441   19.8134  -12.0249 C   0  0  0  0  0  0
  -22.8359   20.3693  -12.0863 N   0  3  0  0  0  0
  -23.0079   21.4698  -11.2062 C   0  0  0  0  0  0
  -22.1269   21.7693  -10.3937 O   0  0  0  0  0  0
  -24.2276   22.1069  -11.2626 N   0  3  0  0  0  0
  -24.3835   23.3630  -10.5304 C   0  0  0  0  0  0
  -23.2056   24.2747  -10.7420 C   0  0  0  0  0  0
  -22.4280   24.6969   -9.6707 C   0  0  0  0  0  0
  -21.3977   25.5627   -9.7867 N   0  0  0  0  0  0
  -21.1413   26.0412  -11.0246 C   0  0  0  0  0  0
  -21.8656   25.6973  -12.1520 C   0  0  0  0  0  0
  -22.9090   24.7949  -12.0053 C   0  0  0  0  0  0
  -25.3225   21.6401  -11.9796 C   0  0  0  0  0  0
  -26.3714   22.2844  -12.0458 O   0  0  0  0  0  0
  -25.2696   20.2619  -12.5407 C   0  0  0  0  0  0
  -24.2654   19.3621  -12.1870 C   0  0  0  0  0  0
  -24.1427   17.4549  -11.5986 C   0  0  0  0  0  0
  -25.0358   16.9184  -11.7091 C   0  0  0  0  0  0
  -26.1165   18.3300  -12.5248 C   0  0  0  0  0  0
  -26.3438   19.6609  -12.8520 N   0  0  0  0  0  0
  -20.2602   18.7997  -15.0350 C   0  0  0  0  0  0
  -19.0068   18.1472  -14.7182 O   0  0  0  0  0  0
  -17.8971   18.9266  -15.1626 C   0  0  0  0  0  0
  -20.3396   19.3383  -16.9772 C   0  0  0  0  0  0
  -22.2037   19.1128  -17.7520 C   0  0  0  0  0  0
  -21.0609   16.4964  -12.5871 H   0  0  0  0  0  0
  1  2  1  0  0  0
  2  3  1  0  0  0
  3  4  2  0  0  0
  3 33  1  0  0  0
  4  5  1  0  0  0
  5  6  1  0  0  0
  5 29  2  0  0  0
  6  7  1  0  0  0
  6 34  1  0  0  0
  7  8  2  0  0  0
  7  9  1  0  0  0
  9 10  1  0  0  0
 10 11  1  0  0  0
 10 24  1  0  0  0
 11 12  2  0  0  0
 11 13  1  0  0  0
 13 14  1  0  0  0
 13 21  1  0  0  0
 14 15  1  0  0  0
 15 16  2  0  0  0
 15 20  1  0  0  0
 16 17  1  0  0  0
 17 18  2  0  0  0
 18 19  1  0  0  0
 19 20  2  0  0  0
 21 22  2  0  0  0
 21 23  1  0  0  0
 23 24  2  0  0  0
 23 28  1  0  0  0
 24 25  1  0  0  0
 25 26  2  0  0  0
 26 27  1  0  0  0
 27 28  2  0  0  0
 29 30  1  0  0  0
 29 32  1  0  0  0
 30 31  1  0  0  0
 32 33  2  0  0  0
M  END
>  <CHROM.0>
-62.75248154,65.26411341,-130.61680310,60.72417514,168.53459759,-175.74525582
-173.60097466,-167.27532161

>  <CHROM.1>
-45.54713800,-111.06761610,83.59537088,121.00311922,45.00341725,-119.99385286
-160.57040185,-22.90300538,20.44789318,-12.80780008,1.50420287,-0.15383460
-2.55233957

>  <Name>
F2437-0207

>  <RI>
4.27687e+07

>  <Rbt.Current_Directory>
/home/adria/Escritorio/rDock_CMTR_LC/2pxcA_model/inputs_sah

>  <Rbt.Executable>
rbdock ($Id: //depot/dev/client3/rdock/2013.1/src/exe/rbdock.cxx#4 $)

>  <Rbt.Library>
libRbt.so (2013.1, Build901 2013/11/27)

>  <Rbt.Parameter_File>
/home/adria/Escritorio/rDock_2013.1_src/data/scripts/dock.prm

>  <Rbt.Receptor>
sah_rdock.prm

>  <SCORE>
-234.055

>  <SCORE.INTER>
-5.57213

>  <SCORE.INTER.CONST>
1

>  <SCORE.INTER.POLAR>
-0.597163

>  <SCORE.INTER.REPUL>
0.315985

>  <SCORE.INTER.ROT>
7

>  <SCORE.INTER.VDW>
-17.5217

>  <SCORE.INTER.norm>
-0.168852

>  <SCORE.INTRA>
-227.436

>  <SCORE.INTRA.DIHEDRAL>
13.7033

>  <SCORE.INTRA.DIHEDRAL.0>
6.41702

>  <SCORE.INTRA.POLAR>
0

>  <SCORE.INTRA.POLAR.0>
0

>  <SCORE.INTRA.REPUL>
0

>  <SCORE.INTRA.REPUL.0>
0

>  <SCORE.INTRA.VDW>
-234.288

>  <SCORE.INTRA.VDW.0>
230.844

>  <SCORE.INTRA.norm>
-6.892

>  <SCORE.RESTR>
0

>  <SCORE.RESTR.CAVITY>
0

>  <SCORE.RESTR.norm>
0

>  <SCORE.SYSTEM>
-1.0466

>  <SCORE.SYSTEM.CONST>
0

>  <SCORE.SYSTEM.DIHEDRAL>
4.51235

>  <SCORE.SYSTEM.POLAR>
-3.62555

>  <SCORE.SYSTEM.VDW>
9.02408

>  <SCORE.SYSTEM.norm>
-0.0317152

>  <SCORE.heavy>
33

>  <SCORE.norm>
-7.09257

$$$$
F2437-0207
  rDOCK(R)          3D
libRbt.so/2013.1/901 2013/11/27
 34 37  0  0  0  0  0  0  0  0999 V2000
  -25.4258   17.7609  -16.2761 C   0  0  0  0  0  0
  -25.1594   17.8412  -14.8618 O   0  0  0  0  0  0
  -23.8412   17.5090  -14.3567 C   0  0  0  0  0  0
  -23.8767   18.0074  -12.4030 C   0  0  0  0  0  0
  -22.2108   19.2049  -11.9387 C   0  0  0  0  0  0
  -21.8829   19.6210  -10.6916 N   0  0  0  0  0  0
  -22.8135   20.3057   -9.9972 C   0  0  0  0  0  0
  -22.6988   20.4824   -8.7911 O   0  0  0  0  0  0
  -24.0696   20.6151  -10.8054 C   0  0  0  0  0  0
  -24.0669   21.8494  -11.8127 N   0  3  0  0  0  0
  -23.8512   23.0713  -11.1232 C   0  0  0  0  0  0
  -23.8688   23.1087   -9.8886 O   0  0  0  0  0  0
  -23.7115   24.1944  -11.9081 N   0  3  0  0  0  0
  -23.2863   25.4366  -11.2643 C   0  0  0  0  0  0
  -21.8423   25.3752  -10.8465 C   0  0  0  0  0  0
  -21.2895   26.3632  -10.0410 C   0  0  0  0  0  0
  -19.9873   26.3981   -9.6834 N   0  0  0  0  0  0
  -19.1977   25.4119  -10.1638 C   0  0  0  0  0  0
  -19.6461   24.3932  -10.9853 C   0  0  0  0  0  0
  -20.9911   24.3744  -11.3244 C   0  0  0  0  0  0
  -23.9383   24.2252  -13.2786 C   0  0  0  0  0  0
  -23.7367   25.2443  -13.9423 O   0  0  0  0  0  0
  -24.5883   23.0480  -13.9181 C   0  0  0  0  0  0
  -25.1666   22.0278  -13.1644 C   0  0  0  0  0  0
  -26.8878   21.0101  -13.1460 C   0  0  0  0  0  0
  -27.4777   21.1586  -13.9990 C   0  0  0  0  0  0
  -26.2640   22.3355  -14.9829 C   0  0  0  0  0  0
  -25.1560   23.1710  -15.0470 N   0  0  0  0  0  0
  -20.7928   19.3740  -13.3520 C   0  0  0  0  0  0
  -19.5157   19.2940  -12.6741 O   0  0  0  0  0  0
  -18.5332   20.0885  -13.3372 C   0  0  0  0  0  0
  -20.6879   18.6038  -15.2133 C   0  0  0  0  0  0
  -22.3865   17.6128  -15.7216 C   0  0  0  0  0  0
  -20.9676   19.3675  -10.3355 H   0  0  0  0  0  0
  1  2  1  0  0  0
  2  3  1  0  0  0
  3  4  2  0  0  0
  3 33  1  0  0  0
  4  5  1  0  0  0
  5  6  1  0  0  0
  5 29  2  0  0  0
  6  7  1  0  0  0
  6 34  1  0  0  0
  7  8  2  0  0  0
  7  9  1  0  0  0
  9 10  1  0  0  0
 10 11  1  0  0  0
 10 24  1  0  0  0
 11 12  2  0  0  0
 11 13  1  0  0  0
 13 14  1  0  0  0
 13 21  1  0  0  0
 14 15  1  0  0  0
 15 16  2  0  0  0
 15 20  1  0  0  0
 16 17  1  0  0  0
 17 18  2  0  0  0
 18 19  1  0  0  0
 19 20  2  0  0  0
 21 22  2  0  0  0
 21 23  1  0  0  0
 23 24  2  0  0  0
 23 28  1  0  0  0
 24 25  1  0  0  0
 25 26  2  0  0  0
 26 27  1  0  0  0
 27 28  2  0  0  0
 29 30  1  0  0  0
 29 32  1  0  0  0
 30 31  1  0  0  0
 32 33  2  0  0  0
M  END
>  <CHROM.0>
-61.14393570,-74.69883384,-46.11169167,65.36241771,-31.18019328,61.12880384
-156.76205731,-161.45867486

>  <CHROM.1>
172.43529588,-55.97721989,-80.71593620,-61.76511540,71.01156611,-170.22575503
-147.78728334,-22.97970507,21.74666920,-12.44206697,1.96171681,0.41868141
-2.76807670

>  <Name>
F2437-0207

>  <RI>
4.27687e+07

>  <Rbt.Current_Directory>
/home/adria/Escritorio/rDock_CMTR_LC/2pxcA_model/inputs_sah

>  <Rbt.Executable>
rbdock ($Id: //depot/dev/client3/rdock/2013.1/src/exe/rbdock.cxx#4 $)

>  <Rbt.Library>
libRbt.so (2013.1, Build901 2013/11/27)

>  <Rbt.Parameter_File>
/home/adria/Escritorio/rDock_2013.1_src/data/scripts/dock.prm

>  <Rbt.Receptor>
sah_rdock.prm

>  <SCORE>
-254.266

>  <SCORE.INTER>
-17.0591

>  <SCORE.INTER.CONST>
1

>  <SCORE.INTER.POLAR>
-2.47548

>  <SCORE.INTER.REPUL>
0.0550043

>  <SCORE.INTER.ROT>
7

>  <SCORE.INTER.VDW>
-21.3175

>  <SCORE.INTER.norm>
-0.516943

>  <SCORE.INTRA>
-229.469

>  <SCORE.INTRA.DIHEDRAL>
7.70301

>  <SCORE.INTRA.DIHEDRAL.0>
6.41702

>  <SCORE.INTRA.POLAR>
0

>  <SCORE.INTRA.POLAR.0>
0

>  <SCORE.INTRA.REPUL>
0

>  <SCORE.INTRA.REPUL.0>
0

>  <SCORE.INTRA.VDW>
-233.321

>  <SCORE.INTRA.VDW.0>
230.844

>  <SCORE.INTRA.norm>
-6.95361

>  <SCORE.RESTR>
0.0521123

>  <SCORE.RESTR.CAVITY>
0.0521123

>  <SCORE.RESTR.norm>
0.00157916

>  <SCORE.SYSTEM>
-7.78944

>  <SCORE.SYSTEM.CONST>
0

>  <SCORE.SYSTEM.DIHEDRAL>
6.65962

>  <SCORE.SYSTEM.POLAR>
-4.10283

>  <SCORE.SYSTEM.REPUL>
0.0414271

>  <SCORE.SYSTEM.VDW>
2.62323

>  <SCORE.SYSTEM.norm>
-0.236044

>  <SCORE.heavy>
33

>  <SCORE.norm>
-7.70502

$$$$
F2437-0207
  rDOCK(R)          3D
libRbt.so/2013.1/901 2013/11/27
 34 37  0  0  0  0  0  0  0  0999 V2000
  -24.5157   16.0619  -14.8926 C   0  0  0  0  0  0
  -23.5096   16.9402  -15.4345 O   0  0  0  0  0  0
  -23.0766   18.0964  -14.6737 C   0  0  0  0  0  0
  -21.8309   19.1050  -15.8973 C   0  0  0  0  0  0
  -20.0307   19.5297  -14.8955 C   0  0  0  0  0  0
  -19.0258   20.2851  -15.4009 N   0  0  0  0  0  0
  -18.5161   19.9269  -16.5962 C   0  0  0  0  0  0
  -17.8053   20.6922  -17.2350 O   0  0  0  0  0  0
  -19.0879   18.6189  -17.1336 C   0  0  0  0  0  0
  -18.0957   17.4406  -17.5405 N   0  3  0  0  0  0
  -18.4996   16.2093  -16.9611 C   0  0  0  0  0  0
  -19.3955   16.1778  -16.1112 O   0  0  0  0  0  0
  -17.7824   15.0963  -17.3400 N   0  3  0  0  0  0
  -18.2826   13.7833  -16.9351 C   0  0  0  0  0  0
  -17.7331   13.3726  -15.5961 C   0  0  0  0  0  0
  -18.5793   13.1295  -14.5211 C   0  0  0  0  0  0
  -18.1455   12.8191  -13.2801 N   0  0  0  0  0  0
  -16.8071   12.7640  -13.0993 C   0  0  0  0  0  0
  -15.8812   13.0055  -14.0984 C   0  0  0  0  0  0
  -16.3556   13.3078  -15.3665 C   0  0  0  0  0  0
  -16.6154   15.1357  -18.0934 C   0  0  0  0  0  0
  -16.0485   14.1034  -18.4576 O   0  0  0  0  0  0
  -15.9613   16.4535  -18.3222 C   0  0  0  0  0  0
  -16.3536   17.5990  -17.6313 C   0  0  0  0  0  0
  -15.4681   19.0830  -16.6253 C   0  0  0  0  0  0
  -14.4282   19.1177  -16.7483 C   0  0  0  0  0  0
  -14.2412   17.6337  -18.0087 C   0  0  0  0  0  0
  -14.7363   16.5062  -18.6518 N   0  0  0  0  0  0
  -19.9831   19.1631  -12.9206 C   0  0  0  0  0  0
  -19.2831   20.2720  -12.3066 O   0  0  0  0  0  0
  -20.1453   21.3982  -12.1497 C   0  0  0  0  0  0
  -21.3864   18.4041  -11.6864 C   0  0  0  0  0  0
  -23.0481   17.8168  -12.6961 C   0  0  0  0  0  0
  -18.7330   21.0974  -14.8686 H   0  0  0  0  0  0
  1  2  1  0  0  0
  2  3  1  0  0  0
  3  4  2  0  0  0
  3 33  1  0  0  0
  4  5  1  0  0  0
  5  6  1  0  0  0
  5 29  2  0  0  0
  6  7  1  0  0  0
  6 34  1  0  0  0
  7  8  2  0  0  0
  7  9  1  0  0  0
  9 10  1  0  0  0
 10 11  1  0  0  0
 10 24  1  0  0  0
 11 12  2  0  0  0
 11 13  1  0  0  0
 13 14  1  0  0  0
 13 21  1  0  0  0
 14 15  1  0  0  0
 15 16  2  0  0  0
 15 20  1  0  0  0
 16 17  1  0  0  0
 17 18  2  0  0  0
 18 19  1  0  0  0
 19 20  2  0  0  0
 21 22  2  0  0  0
 21 23  1  0  0  0
 23 24  2  0  0  0
 23 28  1  0  0  0
 24 25  1  0  0  0
 25 26  2  0  0  0
 26 27  1  0  0  0
 27 28  2  0  0  0
 29 30  1  0  0  0
 29 32  1  0  0  0
 30 31  1  0  0  0
 32 33  2  0  0  0
M  END
>  <CHROM.0>
-179.20176233,-166.32336606,109.59817688,63.10697760,-30.05668346,62.71650581
-157.38911391,-160.58022265

>  <CHROM.1>
-174.24140519,-55.15850592,-125.40143961,130.69076313,-89.51820629,119.35293688
80.09133264,-18.55295498,16.97376361,-15.66670479,2.66270865,0.56379964,-0.10871428

>  <Name>
F2437-0207

>  <RI>
4.27687e+07

>  <Rbt.Current_Directory>
/home/adria/Escritorio/rDock_CMTR_LC/2pxcA_model/inputs_sah

>  <Rbt.Executable>
rbdock ($Id: //depot/dev/client3/rdock/2013.1/src/exe/rbdock.cxx#4 $)

>  <Rbt.Library>
libRbt.so (2013.1, Build901 2013/11/27)

>  <Rbt.Parameter_File>
/home/adria/Escritorio/rDock_2013.1_src/data/scripts/dock.prm

>  <Rbt.Receptor>
sah_rdock.prm

>  <SCORE>
-252.455

>  <SCORE.INTER>
-18.5282

>  <SCORE.INTER.CONST>
1

>  <SCORE.INTER.POLAR>
-1.3036

>  <SCORE.INTER.REPUL>
0

>  <SCORE.INTER.ROT>
7

>  <SCORE.INTER.VDW>
-26.496

>  <SCORE.INTER.norm>
-0.561461

>  <SCORE.INTRA>
-228.021

>  <SCORE.INTRA.DIHEDRAL>
11.4595

>  <SCORE.INTRA.DIHEDRAL.0>
6.41702

>  <SCORE.INTRA.POLAR>
0

>  <SCORE.INTRA.POLAR.0>
0

>  <SCORE.INTRA.REPUL>
0.0211159

>  <SCORE.INTRA.REPUL.0>
0

>  <SCORE.INTRA.VDW>
-233.856

>  <SCORE.INTRA.VDW.0>
230.844

>  <SCORE.INTRA.norm>
-6.90972

>  <SCORE.RESTR>
0.0156224

>  <SCORE.RESTR.CAVITY>
0.0156224

>  <SCORE.RESTR.norm>
0.000473407

>  <SCORE.SYSTEM>
-5.92222

>  <SCORE.SYSTEM.CONST>
0

>  <SCORE.SYSTEM.DIHEDRAL>
9.53375

>  <SCORE.SYSTEM.POLAR>
-4.29679

>  <SCORE.SYSTEM.VDW>
3.91998

>  <SCORE.SYSTEM.norm>
-0.179461

>  <SCORE.heavy>
33

>  <SCORE.norm>
-7.65016

$$$$
F2437-0207
  rDOCK(R)          3D
libRbt.so/2013.1/901 2013/11/27
 34 37  0  0  0  0  0  0  0  0999 V2000
  -25.1991   20.3630  -18.4327 C   0  0  0  0  0  0
  -25.3949   19.2627  -17.5225 O   0  0  0  0  0  0
  -24.2760   18.4093  -17.1720 C   0  0  0  0  0  0
  -24.6455   17.7907  -15.2886 C   0  0  0  0  0  0
  -22.9550   18.1211  -14.0812 C   0  0  0  0  0  0
  -22.8376   17.7219  -12.7917 N   0  0  0  0  0  0
  -23.6913   18.2528  -11.8938 C   0  0  0  0  0  0
  -23.8266   17.7586  -10.7818 O   0  0  0  0  0  0
  -24.5882   19.3402  -12.4767 C   0  0  0  0  0  0
  -24.5398   20.8079  -11.8589 N   0  3  0  0  0  0
  -23.5212   21.5860  -12.4690 C   0  0  0  0  0  0
  -22.6994   21.0626  -13.2283 O   0  0  0  0  0  0
  -23.4643   22.9106  -12.0964 N   0  3  0  0  0  0
  -22.5727   23.7985  -12.8414 C   0  0  0  0  0  0
  -21.5481   24.4335  -11.9413 C   0  0  0  0  0  0
  -20.4794   23.6972  -11.4450 C   0  0  0  0  0  0
  -19.5628   24.1916  -10.5848 N   0  0  0  0  0  0
  -19.7285   25.4735  -10.1894 C   0  0  0  0  0  0
  -20.7666   26.2848  -10.6111 C   0  0  0  0  0  0
  -21.6849   25.7550  -11.5058 C   0  0  0  0  0  0
  -24.2077   23.4658  -11.0620 C   0  0  0  0  0  0
  -24.1639   24.6723  -10.8125 O   0  0  0  0  0  0
  -24.9428   22.5517  -10.1448 C   0  0  0  0  0  0
  -24.7333   21.1736  -10.1568 C   0  0  0  0  0  0
  -24.3989   19.7271   -8.8173 C   0  0  0  0  0  0
  -24.5550   20.0236   -7.8247 C   0  0  0  0  0  0
  -25.1545   21.8540   -8.1654 C   0  0  0  0  0  0
  -25.3017   22.9574   -8.9966 N   0  0  0  0  0  0
  -21.2633   18.6663  -15.0182 C   0  0  0  0  0  0
  -20.1830   17.9367  -14.3879 O   0  0  0  0  0  0
  -19.5785   18.7101  -13.3522 C   0  0  0  0  0  0
  -20.8864   18.9981  -16.9718 C   0  0  0  0  0  0
  -22.5687   18.8670  -18.1025 C   0  0  0  0  0  0
  -22.1356   17.0219  -12.5770 H   0  0  0  0  0  0
  1  2  1  0  0  0
  2  3  1  0  0  0
  3  4  2  0  0  0
  3 33  1  0  0  0
  4  5  1  0  0  0
  5  6  1  0  0  0
  5 29  2  0  0  0
  6  7  1  0  0  0
  6 34  1  0  0  0
  7  8  2  0  0  0
  7  9  1  0  0  0
  9 10  1  0  0  0
 10 11  1  0  0  0
 10 24  1  0  0  0
 11 12  2  0  0  0
 11 13  1  0  0  0
 13 14  1  0  0  0
 13 21  1  0  0  0
 14 15  1  0  0  0
 15 16  2  0  0  0
 15 20  1  0  0  0
 16 17  1  0  0  0
 17 18  2  0  0  0
 18 19  1  0  0  0
 19 20  2  0  0  0
 21 22  2  0  0  0
 21 23  1  0  0  0
 23 24  2  0  0  0
 23 28  1  0  0  0
 24 25  1  0  0  0
 25 26  2  0  0  0
 26 27  1  0  0  0
 27 28  2  0  0  0
 29 30  1  0  0  0
 29 32  1  0  0  0
 30 31  1  0  0  0
 32 33  2  0  0  0
M  END
>  <CHROM.0>
170.66817176,-71.80238810,-42.80405020,62.83415000,-30.03340124,-178.49306070
-156.28107870,-50.22863590

>  <CHROM.1>
149.00107166,-63.19251184,-120.55935850,86.92629212,-121.04807532,73.75759259
-93.96048031,-23.02259102,21.07039011,-12.55806712,-1.67873972,0.90666357
0.92116019

>  <Name>
F2437-0207

>  <RI>
4.27687e+07

>  <Rbt.Current_Directory>
/home/adria/Escritorio/rDock_CMTR_LC/2pxcA_model/inputs_sah

>  <Rbt.Executable>
rbdock ($Id: //depot/dev/client3/rdock/2013.1/src/exe/rbdock.cxx#4 $)

>  <Rbt.Library>
libRbt.so (2013.1, Build901 2013/11/27)

>  <Rbt.Parameter_File>
/home/adria/Escritorio/rDock_2013.1_src/data/scripts/dock.prm

>  <Rbt.Receptor>
sah_rdock.prm

>  <SCORE>
-245.066

>  <SCORE.INTER>
-11.9466

>  <SCORE.INTER.CONST>
1

>  <SCORE.INTER.POLAR>
-0.86235

>  <SCORE.INTER.REPUL>
0

>  <SCORE.INTER.ROT>
7

>  <SCORE.INTER.VDW>
-21.4146

>  <SCORE.INTER.norm>
-0.362018

>  <SCORE.INTRA>
-228.136

>  <SCORE.INTRA.DIHEDRAL>
11.2514

>  <SCORE.INTRA.DIHEDRAL.0>
6.41702

>  <SCORE.INTRA.POLAR>
0

>  <SCORE.INTRA.POLAR.0>
0

>  <SCORE.INTRA.REPUL>
0

>  <SCORE.INTRA.REPUL.0>
0

>  <SCORE.INTRA.VDW>
-233.762

>  <SCORE.INTRA.VDW.0>
230.844

>  <SCORE.INTRA.norm>
-6.91321

>  <SCORE.RESTR>
0

>  <SCORE.RESTR.CAVITY>
0

>  <SCORE.RESTR.norm>
0

>  <SCORE.SYSTEM>
-4.98376

>  <SCORE.SYSTEM.CONST>
0

>  <SCORE.SYSTEM.DIHEDRAL>
9.45971

>  <SCORE.SYSTEM.POLAR>
-3.67709

>  <SCORE.SYSTEM.REPUL>
0.0475039

>  <SCORE.SYSTEM.VDW>
2.55096

>  <SCORE.SYSTEM.norm>
-0.151023

>  <SCORE.heavy>
33

>  <SCORE.norm>
-7.42625

$$$$
F2437-0207
  rDOCK(R)          3D
libRbt.so/2013.1/901 2013/11/27
 34 37  0  0  0  0  0  0  0  0999 V2000
  -18.8724   26.2789  -10.3845 C   0  0  0  0  0  0
  -20.2544   26.2326   -9.9776 O   0  0  0  0  0  0
  -20.9450   24.9590   -9.9145 C   0  0  0  0  0  0
  -21.3768   24.4901  -11.8276 C   0  0  0  0  0  0
  -23.4124   23.9894  -12.0008 C   0  0  0  0  0  0
  -24.0000   23.5265  -13.1306 N   0  0  0  0  0  0
  -24.1714   22.1944  -13.2442 C   0  0  0  0  0  0
  -24.9180   21.7235  -14.0927 O   0  0  0  0  0  0
  -23.5412   21.4008  -12.1041 C   0  0  0  0  0  0
  -22.4576   20.2813  -12.4363 N   0  3  0  0  0  0
  -21.2966   20.8513  -13.0215 C   0  0  0  0  0  0
  -21.2857   22.0356  -13.3723 O   0  0  0  0  0  0
  -20.2439   19.9912  -13.2427 N   0  3  0  0  0  0
  -18.9611   20.5625  -13.6503 C   0  0  0  0  0  0
  -18.5691   20.1097  -15.0304 C   0  0  0  0  0  0
  -17.3619   19.4587  -15.2523 C   0  0  0  0  0  0
  -16.9253   19.0835  -16.4743 N   0  0  0  0  0  0
  -17.7214   19.3854  -17.5241 C   0  0  0  0  0  0
  -18.9321   20.0451  -17.4119 C   0  0  0  0  0  0
  -19.3622   20.4055  -16.1431 C   0  0  0  0  0  0
  -20.3155   18.6114  -13.0943 C   0  0  0  0  0  0
  -19.3237   17.8950  -13.2448 O   0  0  0  0  0  0
  -21.6533   17.9851  -12.9075 C   0  0  0  0  0  0
  -22.8338   18.7024  -13.0952 C   0  0  0  0  0  0
  -24.5710   18.4476  -14.0521 C   0  0  0  0  0  0
  -24.7256   17.4708  -14.3980 C   0  0  0  0  0  0
  -23.0918   16.6578  -13.6941 C   0  0  0  0  0  0
  -21.8163   16.7498  -13.1514 N   0  0  0  0  0  0
  -24.4414   23.7692  -10.2892 C   0  0  0  0  0  0
  -25.2948   22.6120  -10.4608 O   0  0  0  0  0  0
  -26.4969   22.7454   -9.7036 C   0  0  0  0  0  0
  -23.8650   23.9807   -8.3679 C   0  0  0  0  0  0
  -21.9542   24.6532   -8.2181 C   0  0  0  0  0  0
  -24.3081   24.2086  -13.8152 H   0  0  0  0  0  0
  1  2  1  0  0  0
  2  3  1  0  0  0
  3  4  2  0  0  0
  3 33  1  0  0  0
  4  5  1  0  0  0
  5  6  1  0  0  0
  5 29  2  0  0  0
  6  7  1  0  0  0
  6 34  1  0  0  0
  7  8  2  0  0  0
  7  9  1  0  0  0
  9 10  1  0  0  0
 10 11  1  0  0  0
 10 24  1  0  0  0
 11 12  2  0  0  0
 11 13  1  0  0  0
 13 14  1  0  0  0
 13 21  1  0  0  0
 14 15  1  0  0  0
 15 16  2  0  0  0
 15 20  1  0  0  0
 16 17  1  0  0  0
 17 18  2  0  0  0
 18 19  1  0  0  0
 19 20  2  0  0  0
 21 22  2  0  0  0
 21 23  1  0  0  0
 23 24  2  0  0  0
 23 28  1  0  0  0
 24 25  1  0  0  0
 25 26  2  0  0  0
 26 27  1  0  0  0
 27 28  2  0  0  0
 29 30  1  0  0  0
 29 32  1  0  0  0
 30 31  1  0  0  0
 32 33  2  0  0  0
M  END
>  <CHROM.0>
-178.85169587,62.55612744,-37.28100291,64.14146193,-30.48919982,61.57513516
-37.29955445,-46.71029012

>  <CHROM.1>
-77.10295861,98.01082489,-122.55053727,64.04023540,-116.15009774,-123.05243449
-149.45368722,-21.68563029,21.18336546,-12.84756394,-2.07094738,-0.35330197
-2.58050945

>  <Name>
F2437-0207

>  <RI>
4.27687e+07

>  <Rbt.Current_Directory>
/home/adria/Escritorio/rDock_CMTR_LC/2pxcA_model/inputs_sah

>  <Rbt.Executable>
rbdock ($Id: //depot/dev/client3/rdock/2013.1/src/exe/rbdock.cxx#4 $)

>  <Rbt.Library>
libRbt.so (2013.1, Build901 2013/11/27)

>  <Rbt.Parameter_File>
/home/adria/Escritorio/rDock_2013.1_src/data/scripts/dock.prm

>  <Rbt.Receptor>
sah_rdock.prm

>  <SCORE>
-241.113

>  <SCORE.INTER>
-10.7491

>  <SCORE.INTER.CONST>
1

>  <SCORE.INTER.POLAR>
-1.20328

>  <SCORE.INTER.REPUL>
0.00789714

>  <SCORE.INTER.ROT>
7

>  <SCORE.INTER.VDW>
-19.0974

>  <SCORE.INTER.norm>
-0.325729

>  <SCORE.INTRA>
-226.001

>  <SCORE.INTRA.DIHEDRAL>
14.9949

>  <SCORE.INTRA.DIHEDRAL.0>
6.41702

>  <SCORE.INTRA.POLAR>
0

>  <SCORE.INTRA.POLAR.0>
0

>  <SCORE.INTRA.REPUL>
0

>  <SCORE.INTRA.REPUL.0>
0

>  <SCORE.INTRA.VDW>
-233.498

>  <SCORE.INTRA.VDW.0>
230.844

>  <SCORE.INTRA.norm>
-6.84851

>  <SCORE.RESTR>
0

>  <SCORE.RESTR.CAVITY>
0

>  <SCORE.RESTR.norm>
0

>  <SCORE.SYSTEM>
-4.36346

>  <SCORE.SYSTEM.CONST>
0

>  <SCORE.SYSTEM.DIHEDRAL>
8.43698

>  <SCORE.SYSTEM.POLAR>
-3.30965

>  <SCORE.SYSTEM.REPUL>
0.0201597

>  <SCORE.SYSTEM.VDW>
2.57004

>  <SCORE.SYSTEM.norm>
-0.132226

>  <SCORE.heavy>
33

>  <SCORE.norm>
-7.30647

$$$$
F2437-0207
  rDOCK(R)          3D
libRbt.so/2013.1/901 2013/11/27
 34 37  0  0  0  0  0  0  0  0999 V2000
  -24.7164   17.6568  -12.8784 C   0  0  0  0  0  0
  -25.2581   18.9836  -13.0327 O   0  0  0  0  0  0
  -25.5725   19.7748  -11.8587 C   0  0  0  0  0  0
  -25.9699   21.6259  -12.5530 C   0  0  0  0  0  0
  -24.8514   23.0487  -11.4809 C   0  0  0  0  0  0
  -24.9652   24.3908  -11.6288 N   0  0  0  0  0  0
  -24.3543   24.9558  -12.6891 C   0  0  0  0  0  0
  -24.6229   26.0981  -13.0384 O   0  0  0  0  0  0
  -23.5075   23.9767  -13.4960 C   0  0  0  0  0  0
  -22.1736   23.3852  -12.8564 N   0  3  0  0  0  0
  -22.2310   21.9693  -12.7730 C   0  0  0  0  0  0
  -23.2848   21.3676  -13.0040 O   0  0  0  0  0  0
  -21.0835   21.3398  -12.3442 N   0  3  0  0  0  0
  -21.0221   19.8816  -12.4355 C   0  0  0  0  0  0
  -20.2024   19.4369  -13.6161 C   0  0  0  0  0  0
  -20.0515   20.2545  -14.7293 C   0  0  0  0  0  0
  -19.3816   19.8885  -15.8437 N   0  0  0  0  0  0
  -18.8517   18.6451  -15.8545 C   0  0  0  0  0  0
  -18.9601   17.7492  -14.8059 C   0  0  0  0  0  0
  -19.6411   18.1575  -13.6684 C   0  0  0  0  0  0
  -19.9707   22.0000  -11.8376 C   0  0  0  0  0  0
  -18.9456   21.3898  -11.5271 O   0  0  0  0  0  0
  -20.0882   23.4497  -11.5192 C   0  0  0  0  0  0
  -21.3201   24.1020  -11.5050 C   0  0  0  0  0  0
  -22.3100   25.3450  -10.2912 C   0  0  0  0  0  0
  -21.7222   25.7437   -9.5210 C   0  0  0  0  0  0
  -20.0155   24.9242  -10.0124 C   0  0  0  0  0  0
  -19.2651   23.9935  -10.7200 N   0  0  0  0  0  0
  -23.8830   22.3966   -9.8457 C   0  0  0  0  0  0
  -24.0528   23.4116   -8.8270 O   0  0  0  0  0  0
  -25.2158   23.1579   -8.0401 C   0  0  0  0  0  0
  -23.7570   20.5539   -9.0352 C   0  0  0  0  0  0
  -24.6775   19.1545  -10.1842 C   0  0  0  0  0  0
  -25.5300   24.8933  -10.9526 H   0  0  0  0  0  0
  1  2  1  0  0  0
  2  3  1  0  0  0
  3  4  2  0  0  0
  3 33  1  0  0  0
  4  5  1  0  0  0
  5  6  1  0  0  0
  5 29  2  0  0  0
  6  7  1  0  0  0
  6 34  1  0  0  0
  7  8  2  0  0  0
  7  9  1  0  0  0
  9 10  1  0  0  0
 10 11  1  0  0  0
 10 24  1  0  0  0
 11 12  2  0  0  0
 11 13  1  0  0  0
 13 14  1  0  0  0
 13 21  1  0  0  0
 14 15  1  0  0  0
 15 16  2  0  0  0
 15 20  1  0  0  0
 16 17  1  0  0  0
 17 18  2  0  0  0
 18 19  1  0  0  0
 19 20  2  0  0  0
 21 22  2  0  0  0
 21 23  1  0  0  0
 23 24  2  0  0  0
 23 28  1  0  0  0
 24 25  1  0  0  0
 25 26  2  0  0  0
 26 27  1  0  0  0
 27 28  2  0  0  0
 29 30  1  0  0  0
 29 32  1  0  0  0
 30 31  1  0  0  0
 32 33  2  0  0  0
M  END
>  <CHROM.0>
-60.24138638,-71.24953769,71.91653804,63.89795634,-30.37617327,-58.65507201
-37.81238078,-164.72750673

>  <CHROM.1>
170.08132551,-78.90852717,-68.90763954,120.29700429,102.09534520,-25.45567847
90.65064383,-22.34872780,21.88943041,-12.03603761,1.00123116,-0.29498575
-2.69457594

>  <Name>
F2437-0207

>  <RI>
4.27687e+07

>  <Rbt.Current_Directory>
/home/adria/Escritorio/rDock_CMTR_LC/2pxcA_model/inputs_sah

>  <Rbt.Executable>
rbdock ($Id: //depot/dev/client3/rdock/2013.1/src/exe/rbdock.cxx#4 $)

>  <Rbt.Library>
libRbt.so (2013.1, Build901 2013/11/27)

>  <Rbt.Parameter_File>
/home/adria/Escritorio/rDock_2013.1_src/data/scripts/dock.prm

>  <Rbt.Receptor>
sah_rdock.prm

>  <SCORE>
-243.529

>  <SCORE.INTER>
-7.40478

>  <SCORE.INTER.CONST>
1

>  <SCORE.INTER.POLAR>
0

>  <SCORE.INTER.REPUL>
0.273221

>  <SCORE.INTER.ROT>
7

>  <SCORE.INTER.VDW>
-21.1709

>  <SCORE.INTER.norm>
-0.224387

>  <SCORE.INTRA>
-228.325

>  <SCORE.INTRA.DIHEDRAL>
14.9443

>  <SCORE.INTRA.DIHEDRAL.0>
6.41702

>  <SCORE.INTRA.POLAR>
0

>  <SCORE.INTRA.POLAR.0>
0

>  <SCORE.INTRA.REPUL>
0

>  <SCORE.INTRA.REPUL.0>
0

>  <SCORE.INTRA.VDW>
-235.798

>  <SCORE.INTRA.VDW.0>
230.844

>  <SCORE.INTRA.norm>
-6.91895

>  <SCORE.RESTR>
0

>  <SCORE.RESTR.CAVITY>
0

>  <SCORE.RESTR.norm>
0

>  <SCORE.SYSTEM>
-7.79922

>  <SCORE.SYSTEM.CONST>
0

>  <SCORE.SYSTEM.DIHEDRAL>
5.97155

>  <SCORE.SYSTEM.POLAR>
-4.00704

>  <SCORE.SYSTEM.REPUL>
0.0352609

>  <SCORE.SYSTEM.VDW>
2.66263

>  <SCORE.SYSTEM.norm>
-0.23634

>  <SCORE.heavy>
33

>  <SCORE.norm>
-7.37968

$$$$
F2437-0207
  rDOCK(R)          3D
libRbt.so/2013.1/901 2013/11/27
 34 37  0  0  0  0  0  0  0  0999 V2000
  -24.6163   16.4601  -16.9450 C   0  0  0  0  0  0
  -24.0146   17.4845  -16.1289 O   0  0  0  0  0  0
  -22.7449   17.2322  -15.4753 C   0  0  0  0  0  0
  -23.1383   17.3023  -13.4987 C   0  0  0  0  0  0
  -21.7748   18.5868  -12.5418 C   0  0  0  0  0  0
  -21.6999   18.7729  -11.2018 N   0  0  0  0  0  0
  -22.8256   19.1425  -10.5591 C   0  0  0  0  0  0
  -22.9085   19.0737   -9.3395 O   0  0  0  0  0  0
  -23.9972   19.4201  -11.4956 C   0  0  0  0  0  0
  -24.5188   20.9149  -11.6734 N   0  3  0  0  0  0
  -23.5067   21.7481  -12.2179 C   0  0  0  0  0  0
  -22.3463   21.3388  -12.3274 O   0  0  0  0  0  0
  -23.8822   23.0370  -12.5256 N   0  3  0  0  0  0
  -22.9407   23.8692  -13.2735 C   0  0  0  0  0  0
  -22.0904   24.7028  -12.3540 C   0  0  0  0  0  0
  -22.2381   26.0833  -12.3007 C   0  0  0  0  0  0
  -21.4647   26.8919  -11.5439 N   0  0  0  0  0  0
  -20.4899   26.2985  -10.8197 C   0  0  0  0  0  0
  -20.2496   24.9361  -10.8163 C   0  0  0  0  0  0
  -21.0688   24.1285  -11.5917 C   0  0  0  0  0  0
  -25.1050   23.5998  -12.1808 C   0  0  0  0  0  0
  -25.4132   24.7389  -12.5373 O   0  0  0  0  0  0
  -25.9830   22.8643  -11.2294 C   0  0  0  0  0  0
  -25.5285   21.7565  -10.5156 C   0  0  0  0  0  0
  -25.5638   21.1136   -8.6225 C   0  0  0  0  0  0
  -26.2065   21.6596   -8.0008 C   0  0  0  0  0  0
  -26.9283   22.8849   -9.3438 C   0  0  0  0  0  0
  -26.8937   23.4830  -10.5972 N   0  0  0  0  0  0
  -20.2180   19.2342  -13.6347 C   0  0  0  0  0  0
  -19.0543   19.1846  -12.7743 O   0  0  0  0  0  0
  -18.2594   20.3607  -12.9197 C   0  0  0  0  0  0
  -19.7253   18.8906  -15.5602 C   0  0  0  0  0  0
  -21.1484   17.8111  -16.5271 C   0  0  0  0  0  0
  -20.8098   18.5932  -10.7499 H   0  0  0  0  0  0
  1  2  1  0  0  0
  2  3  1  0  0  0
  3  4  2  0  0  0
  3 33  1  0  0  0
  4  5  1  0  0  0
  5  6  1  0  0  0
  5 29  2  0  0  0
  6  7  1  0  0  0
  6 34  1  0  0  0
  7  8  2  0  0  0
  7  9  1  0  0  0
  9 10  1  0  0  0
 10 11  1  0  0  0
 10 24  1  0  0  0
 11 12  2  0  0  0
 11 13  1  0  0  0
 13 14  1  0  0  0
 13 21  1  0  0  0
 14 15  1  0  0  0
 15 16  2  0  0  0
 15 20  1  0  0  0
 16 17  1  0  0  0
 17 18  2  0  0  0
 18 19  1  0  0  0
 19 20  2  0  0  0
 21 22  2  0  0  0
 21 23  1  0  0  0
 23 24  2  0  0  0
 23 28  1  0  0  0
 24 25  1  0  0  0
 25 26  2  0  0  0
 26 27  1  0  0  0
 27 28  2  0  0  0
 29 30  1  0  0  0
 29 32  1  0  0  0
 30 31  1  0  0  0
 32 33  2  0  0  0
M  END
>  <CHROM.0>
-175.33948475,-72.44292071,78.62327202,67.11418075,-29.94685049,-177.23594558
-155.20371482,-161.38553016

>  <CHROM.1>
-115.98409994,-54.71909962,-110.65576795,61.96264743,-93.84787825,-111.22936107
-136.57875455,-22.96278669,21.32047349,-12.24030080,1.29847722,-0.42145475
-2.72663865

>  <Name>
F2437-0207

>  <RI>
4.27687e+07

>  <Rbt.Current_Directory>
/home/adria/Escritorio/rDock_CMTR_LC/2pxcA_model/inputs_sah

>  <Rbt.Executable>
rbdock ($Id: //depot/dev/client3/rdock/2013.1/src/exe/rbdock.cxx#4 $)

>  <Rbt.Library>
libRbt.so (2013.1, Build901 2013/11/27)

>  <Rbt.Parameter_File>
/home/adria/Escritorio/rDock_2013.1_src/data/scripts/dock.prm

>  <Rbt.Receptor>
sah_rdock.prm

>  <SCORE>
-255.182

>  <SCORE.INTER>
-19.6932

>  <SCORE.INTER.CONST>
1

>  <SCORE.INTER.POLAR>
-3.15103

>  <SCORE.INTER.REPUL>
0.00339271

>  <SCORE.INTER.ROT>
7

>  <SCORE.INTER.VDW>
-21.3966

>  <SCORE.INTER.norm>
-0.596762

>  <SCORE.INTRA>
-228.352

>  <SCORE.INTRA.DIHEDRAL>
11.9951

>  <SCORE.INTRA.DIHEDRAL.0>
6.41702

>  <SCORE.INTRA.POLAR>
0

>  <SCORE.INTRA.POLAR.0>
0

>  <SCORE.INTRA.REPUL>
0

>  <SCORE.INTRA.REPUL.0>
0

>  <SCORE.INTRA.VDW>
-234.349

>  <SCORE.INTRA.VDW.0>
230.844

>  <SCORE.INTRA.norm>
-6.91975

>  <SCORE.RESTR>
0.106215

>  <SCORE.RESTR.CAVITY>
0.106215

>  <SCORE.RESTR.norm>
0.00321865

>  <SCORE.SYSTEM>
-7.24329

>  <SCORE.SYSTEM.CONST>
0

>  <SCORE.SYSTEM.DIHEDRAL>
7.31472

>  <SCORE.SYSTEM.POLAR>
-4.12487

>  <SCORE.SYSTEM.REPUL>
0.0375256

>  <SCORE.SYSTEM.VDW>
2.93629

>  <SCORE.SYSTEM.norm>
-0.219494

>  <SCORE.heavy>
33

>  <SCORE.norm>
-7.73278

$$$$
F2437-0207
  rDOCK(R)          3D
libRbt.so/2013.1/901 2013/11/27
 34 37  0  0  0  0  0  0  0  0999 V2000
  -16.7260   19.4230  -16.0421 C   0  0  0  0  0  0
  -17.5504   19.1951  -14.8819 O   0  0  0  0  0  0
  -18.9596   19.5350  -14.9211 C   0  0  0  0  0  0
  -19.7323   18.8076  -13.2063 C   0  0  0  0  0  0
  -21.4412   17.6541  -13.6230 C   0  0  0  0  0  0
  -22.2539   17.1114  -12.6843 N   0  0  0  0  0  0
  -23.0094   17.9530  -11.9509 C   0  0  0  0  0  0
  -23.9470   17.5394  -11.2809 O   0  0  0  0  0  0
  -22.7186   19.4254  -12.2234 C   0  0  0  0  0  0
  -23.8253   20.5179  -11.8773 N   0  3  0  0  0  0
  -23.4063   21.8141  -12.2766 C   0  0  0  0  0  0
  -22.2471   22.0119  -12.6547 O   0  0  0  0  0  0
  -24.3337   22.8223  -12.1339 N   0  3  0  0  0  0
  -24.0274   24.1280  -12.7166 C   0  0  0  0  0  0
  -23.0796   24.9106  -11.8491 C   0  0  0  0  0  0
  -22.4757   26.0709  -12.3174 C   0  0  0  0  0  0
  -21.5701   26.7827  -11.6118 N   0  0  0  0  0  0
  -21.2402   26.3071  -10.3904 C   0  0  0  0  0  0
  -21.7706   25.1538   -9.8405 C   0  0  0  0  0  0
  -22.7093   24.4510  -10.5817 C   0  0  0  0  0  0
  -25.5512   22.6796  -11.4795 C   0  0  0  0  0  0
  -26.3711   23.5990  -11.4364 O   0  0  0  0  0  0
  -25.7899   21.4438  -10.6839 C   0  0  0  0  0  0
  -24.7647   20.5432  -10.3990 C   0  0  0  0  0  0
  -24.0638   19.5745   -8.7963 C   0  0  0  0  0  0
  -24.6947   19.6237   -7.9613 C   0  0  0  0  0  0
  -26.1597   20.6358   -8.7707 C   0  0  0  0  0  0
  -26.6834   21.4314   -9.7820 N   0  0  0  0  0  0
  -22.1509   17.7294  -15.5012 C   0  0  0  0  0  0
  -23.5938   17.7966  -15.4002 O   0  0  0  0  0  0
  -24.2158   17.0750  -16.4626 C   0  0  0  0  0  0
  -21.4796   18.7190  -17.1256 C   0  0  0  0  0  0
  -19.7226   19.6712  -16.7621 C   0  0  0  0  0  0
  -22.2740   16.1004  -12.6058 H   0  0  0  0  0  0
  1  2  1  0  0  0
  2  3  1  0  0  0
  3  4  2  0  0  0
  3 33  1  0  0  0
  4  5  1  0  0  0
  5  6  1  0  0  0
  5 29  2  0  0  0
  6  7  1  0  0  0
  6 34  1  0  0  0
  7  8  2  0  0  0
  7  9  1  0  0  0
  9 10  1  0  0  0
 10 11  1  0  0  0
 10 24  1  0  0  0
 11 12  2  0  0  0
 11 13  1  0  0  0
 13 14  1  0  0  0
 13 21  1  0  0  0
 14 15  1  0  0  0
 15 16  2  0  0  0
 15 20  1  0  0  0
 16 17  1  0  0  0
 17 18  2  0  0  0
 18 19  1  0  0  0
 19 20  2  0  0  0
 21 22  2  0  0  0
 21 23  1  0  0  0
 23 24  2  0  0  0
 23 28  1  0  0  0
 24 25  1  0  0  0
 25 26  2  0  0  0
 26 27  1  0  0  0
 27 28  2  0  0  0
 29 30  1  0  0  0
 29 32  1  0  0  0
 30 31  1  0  0  0
 32 33  2  0  0  0
M  END
>  <CHROM.0>
-61.38047531,-168.24766639,-8.16901220,-59.20943221,-30.68630599,60.93974584
83.07840652,-160.39214546

>  <CHROM.1>
172.18656531,69.21398921,157.84227066,-176.33754607,-79.00631700,168.70642431
-144.48699990,-22.77819191,20.92894554,-12.46111959,-0.96370225,0.64021550
0.32987203

>  <Name>
F2437-0207

>  <RI>
4.27687e+07

>  <Rbt.Current_Directory>
/home/adria/Escritorio/rDock_CMTR_LC/2pxcA_model/inputs_sah

>  <Rbt.Executable>
rbdock ($Id: //depot/dev/client3/rdock/2013.1/src/exe/rbdock.cxx#4 $)

>  <Rbt.Library>
libRbt.so (2013.1, Build901 2013/11/27)

>  <Rbt.Parameter_File>
/home/adria/Escritorio/rDock_2013.1_src/data/scripts/dock.prm

>  <Rbt.Receptor>
sah_rdock.prm

>  <SCORE>
-250.273

>  <SCORE.INTER>
-16.9016

>  <SCORE.INTER.CONST>
1

>  <SCORE.INTER.POLAR>
-1.98287

>  <SCORE.INTER.REPUL>
0.00337092

>  <SCORE.INTER.ROT>
7

>  <SCORE.INTER.VDW>
-22.5767

>  <SCORE.INTER.norm>
-0.51217

>  <SCORE.INTRA>
-227.471

>  <SCORE.INTRA.DIHEDRAL>
12.211

>  <SCORE.INTRA.DIHEDRAL.0>
6.41702

>  <SCORE.INTRA.POLAR>
0

>  <SCORE.INTRA.POLAR.0>
0

>  <SCORE.INTRA.REPUL>
0

>  <SCORE.INTRA.REPUL.0>
0

>  <SCORE.INTRA.VDW>
-233.576

>  <SCORE.INTRA.VDW.0>
230.844

>  <SCORE.INTRA.norm>
-6.89305

>  <SCORE.RESTR>
0

>  <SCORE.RESTR.CAVITY>
0

>  <SCORE.RESTR.norm>
0

>  <SCORE.SYSTEM>
-5.90119

>  <SCORE.SYSTEM.CONST>
0

>  <SCORE.SYSTEM.DIHEDRAL>
9.28609

>  <SCORE.SYSTEM.POLAR>
-4.2854

>  <SCORE.SYSTEM.VDW>
4.02614

>  <SCORE.SYSTEM.norm>
-0.178824

>  <SCORE.heavy>
33

>  <SCORE.norm>
-7.58404

$$$$
F2437-0207
  rDOCK(R)          3D
libRbt.so/2013.1/901 2013/11/27
 34 37  0  0  0  0  0  0  0  0999 V2000
  -21.4108   26.1311  -10.2040 C   0  0  0  0  0  0
  -22.5353   25.6689  -10.9781 O   0  0  0  0  0  0
  -23.0046   24.3054  -10.8245 C   0  0  0  0  0  0
  -24.1526   23.9499  -12.4439 C   0  0  0  0  0  0
  -26.0109   23.1661  -11.8467 C   0  0  0  0  0  0
  -26.9702   22.7230  -12.6949 N   0  0  0  0  0  0
  -26.6967   21.6255  -13.4280 C   0  0  0  0  0  0
  -27.5857   21.0156  -14.0084 O   0  0  0  0  0  0
  -25.2637   21.1282  -13.2668 C   0  0  0  0  0  0
  -24.7149   19.9950  -14.2429 N   0  3  0  0  0  0
  -23.3795   19.6415  -13.9160 C   0  0  0  0  0  0
  -22.7348   20.3066  -13.0988 O   0  0  0  0  0  0
  -22.8415   18.5867  -14.6195 N   0  3  0  0  0  0
  -21.5518   18.0536  -14.1830 C   0  0  0  0  0  0
  -20.4423   19.0461  -14.4009 C   0  0  0  0  0  0
  -20.4094   19.8417  -15.5395 C   0  0  0  0  0  0
  -19.4101   20.7053  -15.8227 N   0  0  0  0  0  0
  -18.3898   20.7666  -14.9382 C   0  0  0  0  0  0
  -18.3193   20.0057  -13.7850 C   0  0  0  0  0  0
  -19.3668   19.1379  -13.5124 C   0  0  0  0  0  0
  -23.4488   17.9851  -15.7150 C   0  0  0  0  0  0
  -22.9511   17.0024  -16.2684 O   0  0  0  0  0  0
  -24.6381   18.6457  -16.3201 C   0  0  0  0  0  0
  -25.0200   19.9390  -15.9669 C   0  0  0  0  0  0
  -25.5435   21.6244  -16.9072 C   0  0  0  0  0  0
  -25.7256   21.4999  -17.9314 C   0  0  0  0  0  0
  -25.4465   19.5668  -18.0371 C   0  0  0  0  0  0
  -24.9823   18.3680  -17.5102 N   0  0  0  0  0  0
  -26.1961   22.6412   -9.9161 C   0  0  0  0  0  0
  -26.9225   21.3888   -9.8915 O   0  0  0  0  0  0
  -26.0299   20.2812   -9.7781 C   0  0  0  0  0  0
  -24.8887   22.7643   -8.3851 C   0  0  0  0  0  0
  -23.1698   23.7006   -8.9280 C   0  0  0  0  0  0
  -27.8536   23.2213  -12.7091 H   0  0  0  0  0  0
  1  2  1  0  0  0
  2  3  1  0  0  0
  3  4  2  0  0  0
  3 33  1  0  0  0
  4  5  1  0  0  0
  5  6  1  0  0  0
  5 29  2  0  0  0
  6  7  1  0  0  0
  6 34  1  0  0  0
  7  8  2  0  0  0
  7  9  1  0  0  0
  9 10  1  0  0  0
 10 11  1  0  0  0
 10 24  1  0  0  0
 11 12  2  0  0  0
 11 13  1  0  0  0
 13 14  1  0  0  0
 13 21  1  0  0  0
 14 15  1  0  0  0
 15 16  2  0  0  0
 15 20  1  0  0  0
 16 17  1  0  0  0
 17 18  2  0  0  0
 18 19  1  0  0  0
 19 20  2  0  0  0
 21 22  2  0  0  0
 21 23  1  0  0  0
 23 24  2  0  0  0
 23 28  1  0  0  0
 24 25  1  0  0  0
 25 26  2  0  0  0
 26 27  1  0  0  0
 27 28  2  0  0  0
 29 30  1  0  0  0
 29 32  1  0  0  0
 30 31  1  0  0  0
 32 33  2  0  0  0
M  END
>  <CHROM.0>
179.67715743,70.83762092,-128.51020746,63.71335592,167.46547015,-62.48953908
-36.12372153,-157.48188383

>  <CHROM.1>
-163.03796934,66.19482953,-169.89937351,-178.46271945,-67.34384290,-38.92427052
97.58330200,-23.66822172,20.96323690,-13.57119503,-1.87179954,0.03824282
-2.22983732

>  <Name>
F2437-0207

>  <RI>
4.27687e+07

>  <Rbt.Current_Directory>
/home/adria/Escritorio/rDock_CMTR_LC/2pxcA_model/inputs_sah

>  <Rbt.Executable>
rbdock ($Id: //depot/dev/client3/rdock/2013.1/src/exe/rbdock.cxx#4 $)

>  <Rbt.Library>
libRbt.so (2013.1, Build901 2013/11/27)

>  <Rbt.Parameter_File>
/home/adria/Escritorio/rDock_2013.1_src/data/scripts/dock.prm

>  <Rbt.Receptor>
sah_rdock.prm

>  <SCORE>
-236.918

>  <SCORE.INTER>
-8.6782

>  <SCORE.INTER.CONST>
1

>  <SCORE.INTER.POLAR>
-0.87178

>  <SCORE.INTER.REPUL>
0.0183106

>  <SCORE.INTER.ROT>
7

>  <SCORE.INTER.VDW>
-18.2057

>  <SCORE.INTER.norm>
-0.262976

>  <SCORE.INTRA>
-226.971

>  <SCORE.INTRA.DIHEDRAL>
13.7342

>  <SCORE.INTRA.DIHEDRAL.0>
6.41702

>  <SCORE.INTRA.POLAR>
0

>  <SCORE.INTRA.POLAR.0>
0

>  <SCORE.INTRA.REPUL>
0

>  <SCORE.INTRA.REPUL.0>
0

>  <SCORE.INTRA.VDW>
-233.838

>  <SCORE.INTRA.VDW.0>
230.844

>  <SCORE.INTRA.norm>
-6.87792

>  <SCORE.RESTR>
0.00702799

>  <SCORE.RESTR.CAVITY>
0.00702799

>  <SCORE.RESTR.norm>
0.000212969

>  <SCORE.SYSTEM>
-1.27509

>  <SCORE.SYSTEM.CONST>
0

>  <SCORE.SYSTEM.DIHEDRAL>
6.75692

>  <SCORE.SYSTEM.POLAR>
-4.14302

>  <SCORE.SYSTEM.VDW>
9.43273

>  <SCORE.SYSTEM.norm>
-0.038639

>  <SCORE.heavy>
33

>  <SCORE.norm>
-7.17932

$$$$
F2437-0207
  rDOCK(R)          3D
libRbt.so/2013.1/901 2013/11/27
 34 37  0  0  0  0  0  0  0  0999 V2000
  -19.3899   25.4031  -10.1551 C   0  0  0  0  0  0
  -20.2422   26.5504  -10.3418 O   0  0  0  0  0  0
  -21.6830   26.3942  -10.2897 C   0  0  0  0  0  0
  -22.0354   25.2192   -8.6893 C   0  0  0  0  0  0
  -23.2929   23.6237   -9.2347 C   0  0  0  0  0  0
  -23.8044   22.7138   -8.3707 N   0  0  0  0  0  0
  -23.6446   21.4095   -8.6708 C   0  0  0  0  0  0
  -23.8363   20.5397   -7.8306 O   0  0  0  0  0  0
  -23.0075   21.1734  -10.0365 C   0  0  0  0  0  0
  -23.2561   19.7901  -10.7865 N   0  3  0  0  0  0
  -22.1342   19.4287  -11.5776 C   0  0  0  0  0  0
  -21.2100   20.2276  -11.7608 O   0  0  0  0  0  0
  -22.1895   18.1911  -12.1794 N   0  3  0  0  0  0
  -20.9819   17.6880  -12.8328 C   0  0  0  0  0  0
  -20.8761   18.1799  -14.2507 C   0  0  0  0  0  0
  -21.8512   17.8668  -15.1897 C   0  0  0  0  0  0
  -21.7827   18.2249  -16.4904 N   0  0  0  0  0  0
  -20.6846   18.9126  -16.8752 C   0  0  0  0  0  0
  -19.6510   19.2588  -16.0234 C   0  0  0  0  0  0
  -19.7551   18.8905  -14.6899 C   0  0  0  0  0  0
  -23.3173   17.3796  -12.1993 C   0  0  0  0  0  0
  -23.2915   16.2529  -12.6987 O   0  0  0  0  0  0
  -24.6149   17.9549  -11.7495 C   0  0  0  0  0  0
  -24.7745   19.3212  -11.5234 C   0  0  0  0  0  0
  -26.0881   20.7473  -12.0126 C   0  0  0  0  0  0
  -26.9764   20.3808  -12.4301 C   0  0  0  0  0  0
  -26.5867   18.4688  -12.2952 C   0  0  0  0  0  0
  -25.7069   17.4112  -12.1013 N   0  0  0  0  0  0
  -24.1312   23.7117  -11.0586 C   0  0  0  0  0  0
  -25.5025   23.2711  -10.9097 O   0  0  0  0  0  0
  -26.2086   24.0976   -9.9853 C   0  0  0  0  0  0
  -23.9539   25.0840  -12.5262 C   0  0  0  0  0  0
  -22.5887   26.5158  -12.0659 C   0  0  0  0  0  0
  -24.2513   23.0620   -7.5293 H   0  0  0  0  0  0
  1  2  1  0  0  0
  2  3  1  0  0  0
  3  4  2  0  0  0
  3 33  1  0  0  0
  4  5  1  0  0  0
  5  6  1  0  0  0
  5 29  2  0  0  0
  6  7  1  0  0  0
  6 34  1  0  0  0
  7  8  2  0  0  0
  7  9  1  0  0  0
  9 10  1  0  0  0
 10 11  1  0  0  0
 10 24  1  0  0  0
 11 12  2  0  0  0
 11 13  1  0  0  0
 13 14  1  0  0  0
 13 21  1  0  0  0
 14 15  1  0  0  0
 15 16  2  0  0  0
 15 20  1  0  0  0
 16 17  1  0  0  0
 17 18  2  0  0  0
 18 19  1  0  0  0
 19 20  2  0  0  0
 21 22  2  0  0  0
 21 23  1  0  0  0
 23 24  2  0  0  0
 23 28  1  0  0  0
 24 25  1  0  0  0
 25 26  2  0  0  0
 26 27  1  0  0  0
 27 28  2  0  0  0
 29 30  1  0  0  0
 29 32  1  0  0  0
 30 31  1  0  0  0
 32 33  2  0  0  0
M  END
>  <CHROM.0>
-64.29370118,-71.72616552,-167.24328654,64.10572802,-29.99198559,-178.96111386
-156.57483293,-163.70105018

>  <CHROM.1>
44.67991180,-128.86334424,-156.16805821,-148.31713465,-85.97420123,-60.87792707
59.03877384,-22.99234900,20.94903912,-11.76410431,-1.63846785,-0.57410167
-2.65039649

>  <Name>
F2437-0207

>  <RI>
4.27687e+07

>  <Rbt.Current_Directory>
/home/adria/Escritorio/rDock_CMTR_LC/2pxcA_model/inputs_sah

>  <Rbt.Executable>
rbdock ($Id: //depot/dev/client3/rdock/2013.1/src/exe/rbdock.cxx#4 $)

>  <Rbt.Library>
libRbt.so (2013.1, Build901 2013/11/27)

>  <Rbt.Parameter_File>
/home/adria/Escritorio/rDock_2013.1_src/data/scripts/dock.prm

>  <Rbt.Receptor>
sah_rdock.prm

>  <SCORE>
-248.474

>  <SCORE.INTER>
-14.4091

>  <SCORE.INTER.CONST>
1

>  <SCORE.INTER.POLAR>
-1.17366

>  <SCORE.INTER.REPUL>
0.00925759

>  <SCORE.INTER.ROT>
7

>  <SCORE.INTER.VDW>
-22.865

>  <SCORE.INTER.norm>
-0.436641

>  <SCORE.INTRA>
-226.348

>  <SCORE.INTRA.DIHEDRAL>
14.0071

>  <SCORE.INTRA.DIHEDRAL.0>
6.41702

>  <SCORE.INTRA.POLAR>
0

>  <SCORE.INTRA.POLAR.0>
0

>  <SCORE.INTRA.REPUL>
0

>  <SCORE.INTRA.REPUL.0>
0

>  <SCORE.INTRA.VDW>
-233.351

>  <SCORE.INTRA.VDW.0>
230.844

>  <SCORE.INTRA.norm>
-6.85903

>  <SCORE.RESTR>
0

>  <SCORE.RESTR.CAVITY>
0

>  <SCORE.RESTR.norm>
0

>  <SCORE.SYSTEM>
-7.71673

>  <SCORE.SYSTEM.CONST>
0

>  <SCORE.SYSTEM.DIHEDRAL>
6.39259

>  <SCORE.SYSTEM.POLAR>
-4.03133

>  <SCORE.SYSTEM.REPUL>
0.0361818

>  <SCORE.SYSTEM.VDW>
2.61258

>  <SCORE.SYSTEM.norm>
-0.23384

>  <SCORE.heavy>
33

>  <SCORE.norm>
-7.52951

$$$$
