F5486-0344
  rDOCK(R)          3D
libRbt.so/2013.1/901 2013/11/27
 34 37  0  0  0  0  0  0  0  0999 V2000
  -20.7975   18.8708  -15.6946 C   0  0  0  0  0  0
  -20.1485   19.5870  -14.2162 C   0  0  0  0  0  0
  -20.2114   19.6292  -12.5543 C   0  0  0  0  0  0
  -18.9671   18.6669  -14.3313 O   0  0  0  0  0  0
  -17.8371   18.8305  -15.2067 C   0  0  0  0  0  0
  -16.9281   17.9165  -15.8217 C   0  0  0  0  0  0
  -15.7408   18.2509  -16.4968 C   0  0  0  0  0  0
  -15.4970   19.5664  -16.7586 C   0  0  0  0  0  0
  -14.0297   20.0125  -17.5256 Cl  0  0  0  0  0  0
  -16.4869   20.4885  -16.4310 C   0  0  0  0  0  0
  -17.6343   20.1262  -15.6654 C   0  0  0  0  0  0
  -20.5522   21.3830  -14.0777 C   0  0  0  0  0  0
  -19.6631   22.2044  -14.2951 O   0  0  0  0  0  0
  -21.8787   22.1319  -13.2913 N   0  0  0  0  0  0
  -23.3179   21.8478  -12.8439 C   0  0  0  0  0  0
  -24.0428   20.6960  -13.2321 C   0  0  0  0  0  0
  -23.8248   19.4208  -13.9605 C   0  0  0  0  0  0
  -25.5182   18.6419  -14.1624 S   0  0  0  0  0  0
  -26.4791   20.0333  -13.4442 C   0  0  0  0  0  0
  -25.4135   20.9541  -12.9891 C   0  0  0  0  0  0
  -25.6299   22.0748  -12.3429 N   0  0  0  0  0  0
  -24.4077   22.6567  -12.2288 N   0  0  0  0  0  0
  -24.5632   24.0901  -11.9936 C   0  0  0  0  0  0
  -24.7735   24.3615  -10.5764 C   0  0  0  0  0  0
  -25.5963   23.9478   -9.8631 O   0  0  0  0  0  0
  -23.7161   25.1904  -10.2184 N   0  0  0  0  0  0
  -22.5237   25.9830  -11.0617 C   0  0  0  0  0  0
  -20.9925   25.7387  -11.1024 C   0  0  0  0  0  0
  -19.9521   25.8008   -9.9324 C   0  0  0  0  0  0
  -18.9927   24.6968  -10.2236 C   0  0  0  0  0  0
  -19.8327   23.7819  -11.0741 C   0  0  0  0  0  0
  -20.7390   24.5695  -11.8420 O   0  0  0  0  0  0
  -21.5438   23.0407  -12.9492 H   0  0  0  0  0  0
  -23.8413   25.0397   -9.2058 H   0  0  0  0  0  0
  1  2  1  0  0  0
  2  3  1  0  0  0
  2  4  1  0  0  0
  2 12  1  0  0  0
  4  5  1  0  0  0
  5  6  2  0  0  0
  5 11  1  0  0  0
  6  7  1  0  0  0
  7  8  2  0  0  0
  8  9  1  0  0  0
  8 10  1  0  0  0
 10 11  2  0  0  0
 12 13  2  0  0  0
 12 14  1  0  0  0
 14 15  1  0  0  0
 14 33  1  0  0  0
 15 16  2  0  0  0
 15 22  1  0  0  0
 16 17  1  0  0  0
 16 20  1  0  0  0
 17 18  1  0  0  0
 18 19  1  0  0  0
 19 20  1  0  0  0
 20 21  2  0  0  0
 21 22  1  0  0  0
 22 23  1  0  0  0
 23 24  1  0  0  0
 24 25  2  0  0  0
 24 26  1  0  0  0
 26 27  1  0  0  0
 26 34  1  0  0  0
 27 28  1  0  0  0
 28 29  1  0  0  0
 28 32  1  0  0  0
 29 30  1  0  0  0
 30 31  1  0  0  0
 31 32  1  0  0  0
M  END
>  <CHROM.0>
-59.06407516,-166.31004917,110.91132953,-62.78625977,-30.02341771,174.90814414
-157.11900081,-160.15629183

>  <CHROM.1>
78.48140449,-104.83298185,-152.31336109,-10.34990528,-122.30122852,-56.70022747
-111.28088097,-60.63010448,-21.02527468,21.49290684,-13.46612304,0.60374762
-0.22336309,-2.54060994

>  <Name>
F5486-0344

>  <RI>
1.43466e+07

>  <Rbt.Current_Directory>
/home/adria/Escritorio/rDock_CMTR_LC/2pxcA_model/inputs_sah

>  <Rbt.Executable>
rbdock ($Id: //depot/dev/client3/rdock/2013.1/src/exe/rbdock.cxx#4 $)

>  <Rbt.Library>
libRbt.so (2013.1, Build901 2013/11/27)

>  <Rbt.Parameter_File>
/home/adria/Escritorio/rDock_2013.1_src/data/scripts/dock.prm

>  <Rbt.Receptor>
sah_rdock.prm

>  <SCORE>
-90.7027

>  <SCORE.INTER>
-13.1923

>  <SCORE.INTER.CONST>
1

>  <SCORE.INTER.POLAR>
0

>  <SCORE.INTER.REPUL>
0

>  <SCORE.INTER.ROT>
8

>  <SCORE.INTER.VDW>
-26.5923

>  <SCORE.INTER.norm>
-0.412258

>  <SCORE.INTRA>
-71.4028

>  <SCORE.INTRA.DIHEDRAL>
-38.6216

>  <SCORE.INTRA.DIHEDRAL.0>
48.6786

>  <SCORE.INTRA.POLAR>
-1

>  <SCORE.INTRA.POLAR.0>
0

>  <SCORE.INTRA.REPUL>
0

>  <SCORE.INTRA.REPUL.0>
0

>  <SCORE.INTRA.VDW>
-48.692

>  <SCORE.INTRA.VDW.0>
44.3934

>  <SCORE.INTRA.norm>
-2.23134

>  <SCORE.RESTR>
0

>  <SCORE.RESTR.CAVITY>
0

>  <SCORE.RESTR.norm>
0

>  <SCORE.SYSTEM>
-6.10759

>  <SCORE.SYSTEM.CONST>
0

>  <SCORE.SYSTEM.DIHEDRAL>
9.68518

>  <SCORE.SYSTEM.POLAR>
-4.35755

>  <SCORE.SYSTEM.VDW>
3.8655

>  <SCORE.SYSTEM.norm>
-0.190862

>  <SCORE.heavy>
32

>  <SCORE.norm>
-2.83446

$$$$
F5486-0344
  rDOCK(R)          3D
libRbt.so/2013.1/901 2013/11/27
 34 37  0  0  0  0  0  0  0  0999 V2000
  -23.3253   19.9473   -9.4486 C   0  0  0  0  0  0
  -23.0922   19.9799  -11.1992 C   0  0  0  0  0  0
  -23.1815   20.8858  -12.5916 C   0  0  0  0  0  0
  -21.6187   20.1505  -10.9640 O   0  0  0  0  0  0
  -20.5690   19.9432  -11.9259 C   0  0  0  0  0  0
  -19.5523   20.7860  -12.4700 C   0  0  0  0  0  0
  -18.7192   20.4861  -13.5624 C   0  0  0  0  0  0
  -18.7378   19.2160  -14.0575 C   0  0  0  0  0  0
  -17.7795   18.8341  -15.4272 Cl  0  0  0  0  0  0
  -19.5052   18.2682  -13.3865 C   0  0  0  0  0  0
  -20.4071   18.6275  -12.3419 C   0  0  0  0  0  0
  -24.2797   18.8747  -12.0800 C   0  0  0  0  0  0
  -24.2969   17.6796  -11.7902 O   0  0  0  0  0  0
  -25.1134   19.1446  -13.5534 N   0  0  0  0  0  0
  -25.6206   20.2824  -14.4480 C   0  0  0  0  0  0
  -25.7603   20.1683  -15.8516 C   0  0  0  0  0  0
  -25.6594   19.1351  -16.9130 C   0  0  0  0  0  0
  -25.7926   20.0507  -18.5436 S   0  0  0  0  0  0
  -25.8240   21.7451  -17.8340 C   0  0  0  0  0  0
  -25.8493   21.4796  -16.3782 C   0  0  0  0  0  0
  -25.9431   22.4094  -15.4578 N   0  0  0  0  0  0
  -25.8099   21.7506  -14.2773 N   0  0  0  0  0  0
  -25.3986   22.6860  -13.2333 C   0  0  0  0  0  0
  -26.5611   23.2950  -12.5977 C   0  0  0  0  0  0
  -27.6037   23.5418  -13.0550 O   0  0  0  0  0  0
  -26.1844   23.4660  -11.2703 N   0  0  0  0  0  0
  -24.7559   23.3028  -10.4373 C   0  0  0  0  0  0
  -23.9168   24.3571   -9.6690 C   0  0  0  0  0  0
  -22.6730   24.1420   -8.7407 C   0  0  0  0  0  0
  -21.7840   25.3045   -9.0282 C   0  0  0  0  0  0
  -22.2326   25.6942  -10.4113 C   0  0  0  0  0  0
  -23.6268   25.4258  -10.5363 O   0  0  0  0  0  0
  -25.2286   18.2265  -13.9995 H   0  0  0  0  0  0
  -27.1497   23.6060  -10.9351 H   0  0  0  0  0  0
  1  2  1  0  0  0
  2  3  1  0  0  0
  2  4  1  0  0  0
  2 12  1  0  0  0
  4  5  1  0  0  0
  5  6  2  0  0  0
  5 11  1  0  0  0
  6  7  1  0  0  0
  7  8  2  0  0  0
  8  9  1  0  0  0
  8 10  1  0  0  0
 10 11  2  0  0  0
 12 13  2  0  0  0
 12 14  1  0  0  0
 14 15  1  0  0  0
 14 33  1  0  0  0
 15 16  2  0  0  0
 15 22  1  0  0  0
 16 17  1  0  0  0
 16 20  1  0  0  0
 17 18  1  0  0  0
 18 19  1  0  0  0
 19 20  1  0  0  0
 20 21  2  0  0  0
 21 22  1  0  0  0
 22 23  1  0  0  0
 23 24  1  0  0  0
 24 25  2  0  0  0
 24 26  1  0  0  0
 26 27  1  0  0  0
 26 34  1  0  0  0
 27 28  1  0  0  0
 28 29  1  0  0  0
 28 32  1  0  0  0
 29 30  1  0  0  0
 30 31  1  0  0  0
 31 32  1  0  0  0
M  END
>  <CHROM.0>
-67.86027391,-77.33024960,75.71676844,-65.00690334,169.16450381,-58.73411287
78.90674464,-167.28679523

>  <CHROM.1>
163.41586442,-57.78084596,120.52887054,151.16301762,-117.96222460,-31.21347433
117.38739728,171.28286034,-23.35112440,21.16652941,-13.19794458,-2.21618848
0.40232132,-2.16142912

>  <Name>
F5486-0344

>  <RI>
1.43466e+07

>  <Rbt.Current_Directory>
/home/adria/Escritorio/rDock_CMTR_LC/2pxcA_model/inputs_sah

>  <Rbt.Executable>
rbdock ($Id: //depot/dev/client3/rdock/2013.1/src/exe/rbdock.cxx#4 $)

>  <Rbt.Library>
libRbt.so (2013.1, Build901 2013/11/27)

>  <Rbt.Parameter_File>
/home/adria/Escritorio/rDock_2013.1_src/data/scripts/dock.prm

>  <Rbt.Receptor>
sah_rdock.prm

>  <SCORE>
-68.1524

>  <SCORE.INTER>
-6.85324

>  <SCORE.INTER.CONST>
1

>  <SCORE.INTER.POLAR>
-0.00477769

>  <SCORE.INTER.REPUL>
0.343875

>  <SCORE.INTER.ROT>
8

>  <SCORE.INTER.VDW>
-21.9564

>  <SCORE.INTER.norm>
-0.214164

>  <SCORE.INTRA>
-59.0708

>  <SCORE.INTRA.DIHEDRAL>
-29.8843

>  <SCORE.INTRA.DIHEDRAL.0>
48.6786

>  <SCORE.INTRA.POLAR>
0

>  <SCORE.INTRA.POLAR.0>
0

>  <SCORE.INTRA.REPUL>
0

>  <SCORE.INTRA.REPUL.0>
0

>  <SCORE.INTRA.VDW>
-44.1287

>  <SCORE.INTRA.VDW.0>
44.3934

>  <SCORE.INTRA.norm>
-1.84596

>  <SCORE.RESTR>
0.0850042

>  <SCORE.RESTR.CAVITY>
0.0850042

>  <SCORE.RESTR.norm>
0.00265638

>  <SCORE.SYSTEM>
-2.31333

>  <SCORE.SYSTEM.CONST>
0

>  <SCORE.SYSTEM.DIHEDRAL>
3.99548

>  <SCORE.SYSTEM.POLAR>
-3.89154

>  <SCORE.SYSTEM.REPUL>
0.0453345

>  <SCORE.SYSTEM.VDW>
8.69351

>  <SCORE.SYSTEM.norm>
-0.0722916

>  <SCORE.heavy>
32

>  <SCORE.norm>
-2.12976

$$$$
F5486-0344
  rDOCK(R)          3D
libRbt.so/2013.1/901 2013/11/27
 34 37  0  0  0  0  0  0  0  0999 V2000
  -18.4562   20.2259  -12.7503 C   0  0  0  0  0  0
  -19.7165   21.0688  -13.6564 C   0  0  0  0  0  0
  -20.3944   22.5367  -14.0477 C   0  0  0  0  0  0
  -18.8780   20.9189  -14.8933 O   0  0  0  0  0  0
  -18.7202   19.7251  -15.6807 C   0  0  0  0  0  0
  -19.3030   18.4225  -15.6209 C   0  0  0  0  0  0
  -18.8904   17.2919  -16.3481 C   0  0  0  0  0  0
  -17.9683   17.4633  -17.3375 C   0  0  0  0  0  0
  -17.3992   16.0959  -18.2015 Cl  0  0  0  0  0  0
  -17.5674   18.7629  -17.6342 C   0  0  0  0  0  0
  -17.9347   19.8726  -16.8172 C   0  0  0  0  0  0
  -21.4063   20.6837  -13.0208 C   0  0  0  0  0  0
  -21.9285   19.6186  -13.3457 O   0  0  0  0  0  0
  -22.5777   21.7470  -12.3606 N   0  0  0  0  0  0
  -22.6964   23.0997  -11.6477 C   0  0  0  0  0  0
  -21.5835   23.8241  -11.1583 C   0  0  0  0  0  0
  -20.1004   23.7630  -11.1842 C   0  0  0  0  0  0
  -19.5050   25.0905  -10.0018 S   0  0  0  0  0  0
  -21.1640   25.5907   -9.3910 C   0  0  0  0  0  0
  -22.0707   24.7778  -10.2321 C   0  0  0  0  0  0
  -23.3798   24.8518  -10.1948 N   0  0  0  0  0  0
  -23.8117   23.8659  -11.0234 N   0  0  0  0  0  0
  -25.1912   23.5142  -10.6957 C   0  0  0  0  0  0
  -25.5184   23.9200   -9.3338 C   0  0  0  0  0  0
  -26.1845   24.8038   -8.9703 O   0  0  0  0  0  0
  -24.9085   22.9648   -8.5283 N   0  0  0  0  0  0
  -23.8441   21.7192   -8.8051 C   0  0  0  0  0  0
  -24.0920   20.2935   -9.3636 C   0  0  0  0  0  0
  -24.8494   19.8619  -10.6656 C   0  0  0  0  0  0
  -24.0695   18.7027  -11.1873 C   0  0  0  0  0  0
  -22.7154   18.9496  -10.5776 C   0  0  0  0  0  0
  -22.8887   19.5677   -9.3051 O   0  0  0  0  0  0
  -23.4976   21.3631  -12.6089 H   0  0  0  0  0  0
  -25.4572   23.2109   -7.6904 H   0  0  0  0  0  0
  1  2  1  0  0  0
  2  3  1  0  0  0
  2  4  1  0  0  0
  2 12  1  0  0  0
  4  5  1  0  0  0
  5  6  2  0  0  0
  5 11  1  0  0  0
  6  7  1  0  0  0
  7  8  2  0  0  0
  8  9  1  0  0  0
  8 10  1  0  0  0
 10 11  2  0  0  0
 12 13  2  0  0  0
 12 14  1  0  0  0
 14 15  1  0  0  0
 14 33  1  0  0  0
 15 16  2  0  0  0
 15 22  1  0  0  0
 16 17  1  0  0  0
 16 20  1  0  0  0
 17 18  1  0  0  0
 18 19  1  0  0  0
 19 20  1  0  0  0
 20 21  2  0  0  0
 21 22  1  0  0  0
 22 23  1  0  0  0
 23 24  1  0  0  0
 24 25  2  0  0  0
 24 26  1  0  0  0
 26 27  1  0  0  0
 26 34  1  0  0  0
 27 28  1  0  0  0
 28 29  1  0  0  0
 28 32  1  0  0  0
 29 30  1  0  0  0
 30 31  1  0  0  0
 31 32  1  0  0  0
M  END
>  <CHROM.0>
174.20723663,-166.87851564,70.97219781,64.16168361,-29.29152603,61.48234260
81.26121492,-165.69063037

>  <CHROM.1>
77.09991808,-79.01099663,4.06602270,-9.32876769,132.19979191,106.31295411
-79.48625827,51.14453476,-21.34127011,21.27872628,-12.42791814,-0.89569388
0.59585013,0.48303744

>  <Name>
F5486-0344

>  <RI>
1.43466e+07

>  <Rbt.Current_Directory>
/home/adria/Escritorio/rDock_CMTR_LC/2pxcA_model/inputs_sah

>  <Rbt.Executable>
rbdock ($Id: //depot/dev/client3/rdock/2013.1/src/exe/rbdock.cxx#4 $)

>  <Rbt.Library>
libRbt.so (2013.1, Build901 2013/11/27)

>  <Rbt.Parameter_File>
/home/adria/Escritorio/rDock_2013.1_src/data/scripts/dock.prm

>  <Rbt.Receptor>
sah_rdock.prm

>  <SCORE>
-90.7232

>  <SCORE.INTER>
-18.3491

>  <SCORE.INTER.CONST>
1

>  <SCORE.INTER.POLAR>
-1.87939

>  <SCORE.INTER.REPUL>
0.00136217

>  <SCORE.INTER.ROT>
8

>  <SCORE.INTER.VDW>
-25.366

>  <SCORE.INTER.norm>
-0.573411

>  <SCORE.INTRA>
-66.4677

>  <SCORE.INTRA.DIHEDRAL>
-38.1042

>  <SCORE.INTRA.DIHEDRAL.0>
48.6786

>  <SCORE.INTRA.POLAR>
0

>  <SCORE.INTRA.POLAR.0>
0

>  <SCORE.INTRA.REPUL>
0

>  <SCORE.INTRA.REPUL.0>
0

>  <SCORE.INTRA.VDW>
-47.4156

>  <SCORE.INTRA.VDW.0>
44.3934

>  <SCORE.INTRA.norm>
-2.07711

>  <SCORE.RESTR>
0

>  <SCORE.RESTR.CAVITY>
0

>  <SCORE.RESTR.norm>
0

>  <SCORE.SYSTEM>
-5.90636

>  <SCORE.SYSTEM.CONST>
0

>  <SCORE.SYSTEM.DIHEDRAL>
6.39217

>  <SCORE.SYSTEM.POLAR>
-3.6032

>  <SCORE.SYSTEM.VDW>
3.14844

>  <SCORE.SYSTEM.norm>
-0.184574

>  <SCORE.heavy>
32

>  <SCORE.norm>
-2.8351

$$$$
F5486-0344
  rDOCK(R)          3D
libRbt.so/2013.1/901 2013/11/27
 34 37  0  0  0  0  0  0  0  0999 V2000
  -21.9034   18.2219  -15.0202 C   0  0  0  0  0  0
  -20.5680   19.0968  -14.2643 C   0  0  0  0  0  0
  -19.5175   19.1771  -12.9769 C   0  0  0  0  0  0
  -19.6300   18.4229  -15.2243 O   0  0  0  0  0  0
  -18.3338   18.8977  -15.6297 C   0  0  0  0  0  0
  -17.7327   20.1922  -15.6846 C   0  0  0  0  0  0
  -16.5114   20.5172  -16.3010 C   0  0  0  0  0  0
  -15.7203   19.4979  -16.7412 C   0  0  0  0  0  0
  -14.2538   19.8624  -17.5517 Cl  0  0  0  0  0  0
  -16.1238   18.1952  -16.4624 C   0  0  0  0  0  0
  -17.4095   17.9017  -15.9197 C   0  0  0  0  0  0
  -21.0697   20.7821  -13.7026 C   0  0  0  0  0  0
  -20.6485   21.7581  -14.3213 O   0  0  0  0  0  0
  -21.7162   21.2662  -12.1905 N   0  0  0  0  0  0
  -22.5001   20.7129  -10.9941 C   0  0  0  0  0  0
  -22.9933   19.3880  -10.9297 C   0  0  0  0  0  0
  -22.9215   18.1211  -11.7002 C   0  0  0  0  0  0
  -24.1521   16.9553  -10.8992 S   0  0  0  0  0  0
  -24.8352   18.1626   -9.6945 C   0  0  0  0  0  0
  -23.9805   19.3504   -9.9154 C   0  0  0  0  0  0
  -24.0594   20.4590   -9.2187 N   0  0  0  0  0  0
  -23.1945   21.3156   -9.8214 N   0  0  0  0  0  0
  -23.5436   22.6922   -9.4790 C   0  0  0  0  0  0
  -23.1383   23.0038   -8.1134 C   0  0  0  0  0  0
  -23.1550   22.3229   -7.1683 O   0  0  0  0  0  0
  -22.6466   24.3025   -8.1822 N   0  0  0  0  0  0
  -22.6288   25.4778   -9.3568 C   0  0  0  0  0  0
  -22.5365   25.3520  -10.9001 C   0  0  0  0  0  0
  -23.4795   24.5802  -11.8850 C   0  0  0  0  0  0
  -23.5521   25.4496  -13.0947 C   0  0  0  0  0  0
  -23.2164   26.7991  -12.5183 C   0  0  0  0  0  0
  -22.2943   26.6257  -11.4454 O   0  0  0  0  0  0
  -21.3868   22.2245  -12.0223 H   0  0  0  0  0  0
  -22.1617   24.2482   -7.2736 H   0  0  0  0  0  0
  1  2  1  0  0  0
  2  3  1  0  0  0
  2  4  1  0  0  0
  2 12  1  0  0  0
  4  5  1  0  0  0
  5  6  2  0  0  0
  5 11  1  0  0  0
  6  7  1  0  0  0
  7  8  2  0  0  0
  8  9  1  0  0  0
  8 10  1  0  0  0
 10 11  2  0  0  0
 12 13  2  0  0  0
 12 14  1  0  0  0
 14 15  1  0  0  0
 14 33  1  0  0  0
 15 16  2  0  0  0
 15 22  1  0  0  0
 16 17  1  0  0  0
 16 20  1  0  0  0
 17 18  1  0  0  0
 18 19  1  0  0  0
 19 20  1  0  0  0
 20 21  2  0  0  0
 21 22  1  0  0  0
 22 23  1  0  0  0
 23 24  1  0  0  0
 24 25  2  0  0  0
 24 26  1  0  0  0
 26 27  1  0  0  0
 26 34  1  0  0  0
 27 28  1  0  0  0
 28 29  1  0  0  0
 28 32  1  0  0  0
 29 30  1  0  0  0
 30 31  1  0  0  0
 31 32  1  0  0  0
M  END
>  <CHROM.0>
40.78027420,67.27045419,73.44947424,62.17853023,5.89388953,65.38761449,82.04793344
153.50196426

>  <CHROM.1>
156.68328665,-108.37486484,-24.75500129,-3.09267009,-131.27060469,-36.81582449
-32.92239851,57.60128577,-21.08865762,20.93789736,-12.54591234,0.41626092
-0.73605124,-3.03508940

>  <Name>
F5486-0344

>  <RI>
1.43466e+07

>  <Rbt.Current_Directory>
/home/adria/Escritorio/rDock_CMTR_LC/2pxcA_model/inputs_sah

>  <Rbt.Executable>
rbdock ($Id: //depot/dev/client3/rdock/2013.1/src/exe/rbdock.cxx#4 $)

>  <Rbt.Library>
libRbt.so (2013.1, Build901 2013/11/27)

>  <Rbt.Parameter_File>
/home/adria/Escritorio/rDock_2013.1_src/data/scripts/dock.prm

>  <Rbt.Receptor>
sah_rdock.prm

>  <SCORE>
-74.838

>  <SCORE.INTER>
-18.602

>  <SCORE.INTER.CONST>
1

>  <SCORE.INTER.POLAR>
-1.74055

>  <SCORE.INTER.REPUL>
0

>  <SCORE.INTER.ROT>
8

>  <SCORE.INTER.VDW>
-26.0841

>  <SCORE.INTER.norm>
-0.581313

>  <SCORE.INTRA>
-66.166

>  <SCORE.INTRA.DIHEDRAL>
-38.3041

>  <SCORE.INTRA.DIHEDRAL.0>
48.6786

>  <SCORE.INTRA.POLAR>
0

>  <SCORE.INTRA.POLAR.0>
0

>  <SCORE.INTRA.REPUL>
0

>  <SCORE.INTRA.REPUL.0>
0

>  <SCORE.INTRA.VDW>
-47.014

>  <SCORE.INTRA.VDW.0>
44.3934

>  <SCORE.INTRA.norm>
-2.06769

>  <SCORE.RESTR>
0

>  <SCORE.RESTR.CAVITY>
0

>  <SCORE.RESTR.norm>
0

>  <SCORE.SYSTEM>
9.93004

>  <SCORE.SYSTEM.CONST>
0

>  <SCORE.SYSTEM.DIHEDRAL>
11.5103

>  <SCORE.SYSTEM.POLAR>
-3.27087

>  <SCORE.SYSTEM.REPUL>
0.120554

>  <SCORE.SYSTEM.VDW>
14.6931

>  <SCORE.SYSTEM.norm>
0.310314

>  <SCORE.heavy>
32

>  <SCORE.norm>
-2.33869

$$$$
F5486-0344
  rDOCK(R)          3D
libRbt.so/2013.1/901 2013/11/27
 34 37  0  0  0  0  0  0  0  0999 V2000
  -25.6431   17.5976  -11.5339 C   0  0  0  0  0  0
  -24.5154   18.6373  -12.4099 C   0  0  0  0  0  0
  -24.3204   20.0307  -13.2976 C   0  0  0  0  0  0
  -24.0609   19.1950  -11.0916 O   0  0  0  0  0  0
  -24.7815   20.1225  -10.2607 C   0  0  0  0  0  0
  -26.1048   20.6585  -10.3025 C   0  0  0  0  0  0
  -26.5976   21.7203   -9.5234 C   0  0  0  0  0  0
  -25.8219   22.1853   -8.5033 C   0  0  0  0  0  0
  -26.3674   23.5188   -7.5736 Cl  0  0  0  0  0  0
  -24.6334   21.5132   -8.2322 C   0  0  0  0  0  0
  -24.1218   20.5025   -9.0985 C   0  0  0  0  0  0
  -23.8447   17.8179  -13.9220 C   0  0  0  0  0  0
  -24.6246   17.2229  -14.6638 O   0  0  0  0  0  0
  -22.2262   17.3851  -14.2853 N   0  0  0  0  0  0
  -20.7814   17.7642  -13.9375 C   0  0  0  0  0  0
  -20.4368   18.8968  -13.1621 C   0  0  0  0  0  0
  -21.0994   19.9590  -12.3642 C   0  0  0  0  0  0
  -19.7528   21.1800  -11.9049 S   0  0  0  0  0  0
  -18.4062   20.3834  -12.8678 C   0  0  0  0  0  0
  -19.0633   19.1610  -13.3820 C   0  0  0  0  0  0
  -18.4561   18.2330  -14.0824 N   0  0  0  0  0  0
  -19.4380   17.3677  -14.4461 N   0  0  0  0  0  0
  -19.0094   16.5950  -15.6095 C   0  0  0  0  0  0
  -19.5236   17.1853  -16.8398 C   0  0  0  0  0  0
  -20.6135   17.1948  -17.2509 O   0  0  0  0  0  0
  -18.4240   17.8159  -17.4112 N   0  0  0  0  0  0
  -16.7959   17.8400  -17.0797 C   0  0  0  0  0  0
  -15.7149   16.7461  -17.2821 C   0  0  0  0  0  0
  -15.7342   15.2451  -16.8331 C   0  0  0  0  0  0
  -15.0656   14.5113  -17.9460 C   0  0  0  0  0  0
  -15.2818   15.4514  -19.1017 C   0  0  0  0  0  0
  -15.2681   16.7909  -18.6150 O   0  0  0  0  0  0
  -22.2706   16.5411  -14.8690 H   0  0  0  0  0  0
  -18.9912   18.3901  -18.0533 H   0  0  0  0  0  0
  1  2  1  0  0  0
  2  3  1  0  0  0
  2  4  1  0  0  0
  2 12  1  0  0  0
  4  5  1  0  0  0
  5  6  2  0  0  0
  5 11  1  0  0  0
  6  7  1  0  0  0
  7  8  2  0  0  0
  8  9  1  0  0  0
  8 10  1  0  0  0
 10 11  2  0  0  0
 12 13  2  0  0  0
 12 14  1  0  0  0
 14 15  1  0  0  0
 14 33  1  0  0  0
 15 16  2  0  0  0
 15 22  1  0  0  0
 16 17  1  0  0  0
 16 20  1  0  0  0
 17 18  1  0  0  0
 18 19  1  0  0  0
 19 20  1  0  0  0
 20 21  2  0  0  0
 21 22  1  0  0  0
 22 23  1  0  0  0
 23 24  1  0  0  0
 24 25  2  0  0  0
 24 26  1  0  0  0
 26 27  1  0  0  0
 26 34  1  0  0  0
 27 28  1  0  0  0
 28 29  1  0  0  0
 28 32  1  0  0  0
 29 30  1  0  0  0
 30 31  1  0  0  0
 31 32  1  0  0  0
M  END
>  <CHROM.0>
-175.22103743,-165.38880890,-39.86363054,65.03426638,168.35162143,-179.48716155
-36.42469908,-159.19785475

>  <CHROM.1>
-74.65352155,45.42811615,8.27778916,-8.14280043,56.72947853,-72.23459315
72.12796959,-50.64203520,-21.27258805,18.90330568,-13.34728081,2.34066354
0.21141034,0.81244782

>  <Name>
F5486-0344

>  <RI>
1.43466e+07

>  <Rbt.Current_Directory>
/home/adria/Escritorio/rDock_CMTR_LC/2pxcA_model/inputs_sah

>  <Rbt.Executable>
rbdock ($Id: //depot/dev/client3/rdock/2013.1/src/exe/rbdock.cxx#4 $)

>  <Rbt.Library>
libRbt.so (2013.1, Build901 2013/11/27)

>  <Rbt.Parameter_File>
/home/adria/Escritorio/rDock_2013.1_src/data/scripts/dock.prm

>  <Rbt.Receptor>
sah_rdock.prm

>  <SCORE>
-78.5332

>  <SCORE.INTER>
-10.0198

>  <SCORE.INTER.CONST>
1

>  <SCORE.INTER.POLAR>
-0.721416

>  <SCORE.INTER.REPUL>
0

>  <SCORE.INTER.ROT>
8

>  <SCORE.INTER.VDW>
-20.967

>  <SCORE.INTER.norm>
-0.313118

>  <SCORE.INTRA>
-67.8476

>  <SCORE.INTRA.DIHEDRAL>
-40.1276

>  <SCORE.INTRA.DIHEDRAL.0>
48.6786

>  <SCORE.INTRA.POLAR>
0

>  <SCORE.INTRA.POLAR.0>
0

>  <SCORE.INTRA.REPUL>
0

>  <SCORE.INTRA.REPUL.0>
0

>  <SCORE.INTRA.VDW>
-47.7838

>  <SCORE.INTRA.VDW.0>
44.3934

>  <SCORE.INTRA.norm>
-2.12024

>  <SCORE.RESTR>
0

>  <SCORE.RESTR.CAVITY>
0

>  <SCORE.RESTR.norm>
0

>  <SCORE.SYSTEM>
-0.665866

>  <SCORE.SYSTEM.CONST>
0

>  <SCORE.SYSTEM.DIHEDRAL>
4.61204

>  <SCORE.SYSTEM.POLAR>
-3.59954

>  <SCORE.SYSTEM.VDW>
9.26655

>  <SCORE.SYSTEM.norm>
-0.0208083

>  <SCORE.heavy>
32

>  <SCORE.norm>
-2.45416

$$$$
F5486-0344
  rDOCK(R)          3D
libRbt.so/2013.1/901 2013/11/27
 34 37  0  0  0  0  0  0  0  0999 V2000
  -18.3823   20.3592  -12.7106 C   0  0  0  0  0  0
  -19.4840   19.4629  -13.7607 C   0  0  0  0  0  0
  -20.6575   19.5535  -14.9363 C   0  0  0  0  0  0
  -18.3274   19.1852  -14.6776 O   0  0  0  0  0  0
  -18.2727   18.1805  -15.7059 C   0  0  0  0  0  0
  -18.9068   16.9122  -15.8774 C   0  0  0  0  0  0
  -18.5914   15.9490  -16.8522 C   0  0  0  0  0  0
  -17.7280   16.2984  -17.8477 C   0  0  0  0  0  0
  -17.2756   15.1282  -19.0166 Cl  0  0  0  0  0  0
  -17.2906   17.6191  -17.8948 C   0  0  0  0  0  0
  -17.5560   18.5415  -16.8401 C   0  0  0  0  0  0
  -20.7928   18.5797  -12.8042 C   0  0  0  0  0  0
  -20.5898   17.4146  -12.4668 O   0  0  0  0  0  0
  -22.4535   18.9701  -12.6361 N   0  0  0  0  0  0
  -23.4133   20.1641  -12.7080 C   0  0  0  0  0  0
  -22.9829   21.5027  -12.8684 C   0  0  0  0  0  0
  -21.7324   22.2602  -13.1264 C   0  0  0  0  0  0
  -22.1703   24.0715  -12.9200 S   0  0  0  0  0  0
  -23.9015   23.8096  -12.3637 C   0  0  0  0  0  0
  -24.0578   22.3433  -12.4907 C   0  0  0  0  0  0
  -25.1749   21.6954  -12.2610 N   0  0  0  0  0  0
  -24.8493   20.3815  -12.3746 N   0  0  0  0  0  0
  -25.8356   19.5656  -11.6706 C   0  0  0  0  0  0
  -25.2369   18.3214  -11.2014 C   0  0  0  0  0  0
  -25.0050   17.3472  -11.7964 O   0  0  0  0  0  0
  -24.9250   18.5644   -9.8683 N   0  0  0  0  0  0
  -25.2558   19.7961   -8.8032 C   0  0  0  0  0  0
  -24.4250   21.0529   -8.4340 C   0  0  0  0  0  0
  -23.6665   22.0466   -9.3786 C   0  0  0  0  0  0
  -23.8632   23.3854   -8.7517 C   0  0  0  0  0  0
  -25.1214   23.1650   -7.9552 C   0  0  0  0  0  0
  -25.1470   21.8153   -7.4981 O   0  0  0  0  0  0
  -22.9563   18.0806  -12.5307 H   0  0  0  0  0  0
  -24.2850   17.7593   -9.7924 H   0  0  0  0  0  0
  1  2  1  0  0  0
  2  3  1  0  0  0
  2  4  1  0  0  0
  2 12  1  0  0  0
  4  5  1  0  0  0
  5  6  2  0  0  0
  5 11  1  0  0  0
  6  7  1  0  0  0
  7  8  2  0  0  0
  8  9  1  0  0  0
  8 10  1  0  0  0
 10 11  2  0  0  0
 12 13  2  0  0  0
 12 14  1  0  0  0
 14 15  1  0  0  0
 14 33  1  0  0  0
 15 16  2  0  0  0
 15 22  1  0  0  0
 16 17  1  0  0  0
 16 20  1  0  0  0
 17 18  1  0  0  0
 18 19  1  0  0  0
 19 20  1  0  0  0
 20 21  2  0  0  0
 21 22  1  0  0  0
 22 23  1  0  0  0
 23 24  1  0  0  0
 24 25  2  0  0  0
 24 26  1  0  0  0
 26 27  1  0  0  0
 26 34  1  0  0  0
 27 28  1  0  0  0
 28 29  1  0  0  0
 28 32  1  0  0  0
 29 30  1  0  0  0
 30 31  1  0  0  0
 31 32  1  0  0  0
M  END
>  <CHROM.0>
-60.71639210,-72.29235876,-128.50452973,-56.47878942,-28.98437611,-60.57717457
-158.44200936,-162.49956781

>  <CHROM.1>
163.25708573,-92.42222805,-28.03192947,-6.38926882,1.46941948,-79.10583635
-93.96405532,44.89850535,-21.81312637,19.75950457,-13.03238712,-0.60469328
0.74098623,0.20380507

>  <Name>
F5486-0344

>  <RI>
1.43466e+07

>  <Rbt.Current_Directory>
/home/adria/Escritorio/rDock_CMTR_LC/2pxcA_model/inputs_sah

>  <Rbt.Executable>
rbdock ($Id: //depot/dev/client3/rdock/2013.1/src/exe/rbdock.cxx#4 $)

>  <Rbt.Library>
libRbt.so (2013.1, Build901 2013/11/27)

>  <Rbt.Parameter_File>
/home/adria/Escritorio/rDock_2013.1_src/data/scripts/dock.prm

>  <Rbt.Receptor>
sah_rdock.prm

>  <SCORE>
-87.4443

>  <SCORE.INTER>
-12.395

>  <SCORE.INTER.CONST>
1

>  <SCORE.INTER.POLAR>
-1.57622

>  <SCORE.INTER.REPUL>
0.00978207

>  <SCORE.INTER.ROT>
8

>  <SCORE.INTER.VDW>
-20.4848

>  <SCORE.INTER.norm>
-0.387345

>  <SCORE.INTRA>
-68.0265

>  <SCORE.INTRA.DIHEDRAL>
-38.5444

>  <SCORE.INTRA.DIHEDRAL.0>
48.6786

>  <SCORE.INTRA.POLAR>
0

>  <SCORE.INTRA.POLAR.0>
0

>  <SCORE.INTRA.REPUL>
0

>  <SCORE.INTRA.REPUL.0>
0

>  <SCORE.INTRA.VDW>
-48.7544

>  <SCORE.INTRA.VDW.0>
44.3934

>  <SCORE.INTRA.norm>
-2.12583

>  <SCORE.RESTR>
0

>  <SCORE.RESTR.CAVITY>
0

>  <SCORE.RESTR.norm>
0

>  <SCORE.SYSTEM>
-7.02265

>  <SCORE.SYSTEM.CONST>
0

>  <SCORE.SYSTEM.DIHEDRAL>
9.46458

>  <SCORE.SYSTEM.POLAR>
-4.57076

>  <SCORE.SYSTEM.REPUL>
0.0372474

>  <SCORE.SYSTEM.VDW>
3.5994

>  <SCORE.SYSTEM.norm>
-0.219458

>  <SCORE.heavy>
32

>  <SCORE.norm>
-2.73263

$$$$
F5486-0344
  rDOCK(R)          3D
libRbt.so/2013.1/901 2013/11/27
 34 37  0  0  0  0  0  0  0  0999 V2000
  -21.4972   18.2115  -14.8379 C   0  0  0  0  0  0
  -20.1606   19.1674  -14.1901 C   0  0  0  0  0  0
  -19.1291   19.4159  -12.9088 C   0  0  0  0  0  0
  -19.2181   18.3522  -15.0284 O   0  0  0  0  0  0
  -17.9610   18.7902  -15.5741 C   0  0  0  0  0  0
  -17.2797   20.0454  -15.5918 C   0  0  0  0  0  0
  -16.1376   20.3619  -16.3486 C   0  0  0  0  0  0
  -15.4947   19.3506  -16.9987 C   0  0  0  0  0  0
  -14.1353   19.7125  -17.9792 Cl  0  0  0  0  0  0
  -15.9498   18.0516  -16.7909 C   0  0  0  0  0  0
  -17.1636   17.7782  -16.0939 C   0  0  0  0  0  0
  -20.6451   20.9218  -13.8816 C   0  0  0  0  0  0
  -20.1847   21.7966  -14.6132 O   0  0  0  0  0  0
  -21.3290   21.6192  -12.4729 N   0  0  0  0  0  0
  -22.1616   21.2480  -11.2395 C   0  0  0  0  0  0
  -22.7041   19.9590  -11.0233 C   0  0  0  0  0  0
  -22.6596   18.6030  -11.6261 C   0  0  0  0  0  0
  -23.9512   17.5894  -10.7207 S   0  0  0  0  0  0
  -24.6191   18.9613   -9.6975 C   0  0  0  0  0  0
  -23.7164   20.0828  -10.0412 C   0  0  0  0  0  0
  -23.7719   21.2726   -9.4919 N   0  0  0  0  0  0
  -22.8619   22.0170  -10.1724 N   0  0  0  0  0  0
  -23.1690   23.4366  -10.0159 C   0  0  0  0  0  0
  -22.4952   23.9851   -8.8448 C   0  0  0  0  0  0
  -22.7697   23.8712   -7.7184 O   0  0  0  0  0  0
  -21.3801   24.6389   -9.3570 N   0  0  0  0  0  0
  -20.8595   25.0233  -10.8875 C   0  0  0  0  0  0
  -21.6688   25.3356  -12.1733 C   0  0  0  0  0  0
  -22.8260   24.5120  -12.8350 C   0  0  0  0  0  0
  -23.7737   25.5421  -13.3499 C   0  0  0  0  0  0
  -23.4510   26.7185  -12.4676 C   0  0  0  0  0  0
  -22.0632   26.6854  -12.1446 O   0  0  0  0  0  0
  -20.9856   22.5862  -12.4261 H   0  0  0  0  0  0
  -20.8993   24.6933   -8.4463 H   0  0  0  0  0  0
  1  2  1  0  0  0
  2  3  1  0  0  0
  2  4  1  0  0  0
  2 12  1  0  0  0
  4  5  1  0  0  0
  5  6  2  0  0  0
  5 11  1  0  0  0
  6  7  1  0  0  0
  7  8  2  0  0  0
  8  9  1  0  0  0
  8 10  1  0  0  0
 10 11  2  0  0  0
 12 13  2  0  0  0
 12 14  1  0  0  0
 14 15  1  0  0  0
 14 33  1  0  0  0
 15 16  2  0  0  0
 15 22  1  0  0  0
 16 17  1  0  0  0
 16 20  1  0  0  0
 17 18  1  0  0  0
 18 19  1  0  0  0
 19 20  1  0  0  0
 20 21  2  0  0  0
 21 22  1  0  0  0
 22 23  1  0  0  0
 23 24  1  0  0  0
 24 25  2  0  0  0
 24 26  1  0  0  0
 26 27  1  0  0  0
 26 34  1  0  0  0
 27 28  1  0  0  0
 28 29  1  0  0  0
 28 32  1  0  0  0
 29 30  1  0  0  0
 30 31  1  0  0  0
 31 32  1  0  0  0
M  END
>  <CHROM.0>
-61.81422366,69.78969279,72.09719389,66.33850742,-33.26888182,50.10522441
-156.20758314,-170.26293800

>  <CHROM.1>
150.70163863,-109.37605191,-4.75745169,-4.28570145,-116.97022249,-76.80813953
30.32238683,-51.22410657,-20.70728134,21.19322698,-12.84385592,0.43894490
-0.72296611,-3.07738440

>  <Name>
F5486-0344

>  <RI>
1.43466e+07

>  <Rbt.Current_Directory>
/home/adria/Escritorio/rDock_CMTR_LC/2pxcA_model/inputs_sah

>  <Rbt.Executable>
rbdock ($Id: //depot/dev/client3/rdock/2013.1/src/exe/rbdock.cxx#4 $)

>  <Rbt.Library>
libRbt.so (2013.1, Build901 2013/11/27)

>  <Rbt.Parameter_File>
/home/adria/Escritorio/rDock_2013.1_src/data/scripts/dock.prm

>  <Rbt.Receptor>
sah_rdock.prm

>  <SCORE>
-91.4132

>  <SCORE.INTER>
-16.6546

>  <SCORE.INTER.CONST>
1

>  <SCORE.INTER.POLAR>
-1.85039

>  <SCORE.INTER.REPUL>
0.287368

>  <SCORE.INTER.ROT>
8

>  <SCORE.INTER.VDW>
-25.2001

>  <SCORE.INTER.norm>
-0.520457

>  <SCORE.INTRA>
-67.5163

>  <SCORE.INTRA.DIHEDRAL>
-38.8498

>  <SCORE.INTRA.DIHEDRAL.0>
48.6786

>  <SCORE.INTRA.POLAR>
0

>  <SCORE.INTRA.POLAR.0>
0

>  <SCORE.INTRA.REPUL>
0

>  <SCORE.INTRA.REPUL.0>
0

>  <SCORE.INTRA.VDW>
-48.0914

>  <SCORE.INTRA.VDW.0>
44.3934

>  <SCORE.INTRA.norm>
-2.10988

>  <SCORE.RESTR>
0

>  <SCORE.RESTR.CAVITY>
0

>  <SCORE.RESTR.norm>
0

>  <SCORE.SYSTEM>
-7.24232

>  <SCORE.SYSTEM.CONST>
0

>  <SCORE.SYSTEM.DIHEDRAL>
5.60938

>  <SCORE.SYSTEM.POLAR>
-3.7429

>  <SCORE.SYSTEM.VDW>
2.67885

>  <SCORE.SYSTEM.norm>
-0.226323

>  <SCORE.heavy>
32

>  <SCORE.norm>
-2.85666

$$$$
F5486-0344
  rDOCK(R)          3D
libRbt.so/2013.1/901 2013/11/27
 34 37  0  0  0  0  0  0  0  0999 V2000
  -15.0937   18.1600  -16.5666 C   0  0  0  0  0  0
  -16.8552   18.2839  -16.5241 C   0  0  0  0  0  0
  -18.2818   18.0244  -17.3395 C   0  0  0  0  0  0
  -16.8878   17.0319  -15.6952 O   0  0  0  0  0  0
  -16.5982   15.6976  -16.1487 C   0  0  0  0  0  0
  -15.5987   15.1448  -17.0062 C   0  0  0  0  0  0
  -15.5714   13.8346  -17.5161 C   0  0  0  0  0  0
  -16.4697   12.9336  -17.0262 C   0  0  0  0  0  0
  -16.5028   11.3450  -17.6707 Cl  0  0  0  0  0  0
  -17.2917   13.3394  -15.9787 C   0  0  0  0  0  0
  -17.3564   14.6984  -15.5512 C   0  0  0  0  0  0
  -17.4287   20.0381  -16.4854 C   0  0  0  0  0  0
  -16.9004   20.8466  -17.2468 O   0  0  0  0  0  0
  -18.3158   20.8553  -15.2673 N   0  0  0  0  0  0
  -19.2948   20.5856  -14.1180 C   0  0  0  0  0  0
  -19.8438   19.3104  -13.8436 C   0  0  0  0  0  0
  -19.7045   17.9034  -14.2964 C   0  0  0  0  0  0
  -21.0882   16.9505  -13.4642 S   0  0  0  0  0  0
  -21.8998   18.3985  -12.6769 C   0  0  0  0  0  0
  -20.9753   19.5037  -13.0149 C   0  0  0  0  0  0
  -21.1164   20.7399  -12.5995 N   0  0  0  0  0  0
  -20.1364   21.4372  -13.2309 N   0  0  0  0  0  0
  -20.4796   22.8569  -13.2581 C   0  0  0  0  0  0
  -20.6366   23.3768  -11.9048 C   0  0  0  0  0  0
  -19.8459   23.4608  -11.0535 O   0  0  0  0  0  0
  -21.9498   23.8309  -11.8547 N   0  0  0  0  0  0
  -23.2588   23.7161  -12.8718 C   0  0  0  0  0  0
  -24.4703   22.7479  -12.8419 C   0  0  0  0  0  0
  -25.5457   22.4789  -13.9492 C   0  0  0  0  0  0
  -25.8190   21.0155  -13.8600 C   0  0  0  0  0  0
  -24.5492   20.5079  -13.2308 C   0  0  0  0  0  0
  -24.0442   21.5032  -12.3443 O   0  0  0  0  0  0
  -18.0106   21.8359  -15.2880 H   0  0  0  0  0  0
  -21.8018   24.3969  -11.0054 H   0  0  0  0  0  0
  1  2  1  0  0  0
  2  3  1  0  0  0
  2  4  1  0  0  0
  2 12  1  0  0  0
  4  5  1  0  0  0
  5  6  2  0  0  0
  5 11  1  0  0  0
  6  7  1  0  0  0
  7  8  2  0  0  0
  8  9  1  0  0  0
  8 10  1  0  0  0
 10 11  2  0  0  0
 12 13  2  0  0  0
 12 14  1  0  0  0
 14 15  1  0  0  0
 14 33  1  0  0  0
 15 16  2  0  0  0
 15 22  1  0  0  0
 16 17  1  0  0  0
 16 20  1  0  0  0
 17 18  1  0  0  0
 18 19  1  0  0  0
 19 20  1  0  0  0
 20 21  2  0  0  0
 21 22  1  0  0  0
 22 23  1  0  0  0
 23 24  1  0  0  0
 24 25  2  0  0  0
 24 26  1  0  0  0
 26 27  1  0  0  0
 26 34  1  0  0  0
 27 28  1  0  0  0
 28 29  1  0  0  0
 28 32  1  0  0  0
 29 30  1  0  0  0
 30 31  1  0  0  0
 31 32  1  0  0  0
M  END
>  <CHROM.0>
-63.90631806,68.46549259,112.14018821,-61.59023607,27.62631488,-63.62891389
-156.45553567,-61.75585086

>  <CHROM.1>
-71.17709676,44.77280247,41.88792997,-5.59801546,-146.98604448,63.24826982
98.67654894,-167.23772949,-19.63269352,18.73817767,-14.64581103,-0.92141059
0.35654863,0.21588089

>  <Name>
F5486-0344

>  <RI>
1.43466e+07

>  <Rbt.Current_Directory>
/home/adria/Escritorio/rDock_CMTR_LC/2pxcA_model/inputs_sah

>  <Rbt.Executable>
rbdock ($Id: //depot/dev/client3/rdock/2013.1/src/exe/rbdock.cxx#4 $)

>  <Rbt.Library>
libRbt.so (2013.1, Build901 2013/11/27)

>  <Rbt.Parameter_File>
/home/adria/Escritorio/rDock_2013.1_src/data/scripts/dock.prm

>  <Rbt.Receptor>
sah_rdock.prm

>  <SCORE>
-68.3103

>  <SCORE.INTER>
-9.60132

>  <SCORE.INTER.CONST>
1

>  <SCORE.INTER.POLAR>
-0.827931

>  <SCORE.INTER.REPUL>
0.258605

>  <SCORE.INTER.ROT>
8

>  <SCORE.INTER.VDW>
-21.4794

>  <SCORE.INTER.norm>
-0.300041

>  <SCORE.INTRA>
-66.3074

>  <SCORE.INTRA.DIHEDRAL>
-37.8706

>  <SCORE.INTRA.DIHEDRAL.0>
48.6786

>  <SCORE.INTRA.POLAR>
0

>  <SCORE.INTRA.POLAR.0>
0

>  <SCORE.INTRA.REPUL>
0.00085387

>  <SCORE.INTRA.REPUL.0>
0

>  <SCORE.INTRA.VDW>
-47.3764

>  <SCORE.INTRA.VDW.0>
44.3934

>  <SCORE.INTRA.norm>
-2.07211

>  <SCORE.RESTR>
0.0558048

>  <SCORE.RESTR.CAVITY>
0.0558048

>  <SCORE.RESTR.norm>
0.0017439

>  <SCORE.SYSTEM>
7.5427

>  <SCORE.SYSTEM.CONST>
0

>  <SCORE.SYSTEM.DIHEDRAL>
12.8898

>  <SCORE.SYSTEM.POLAR>
-3.76793

>  <SCORE.SYSTEM.VDW>
13.9087

>  <SCORE.SYSTEM.norm>
0.235709

>  <SCORE.heavy>
32

>  <SCORE.norm>
-2.1347

$$$$
F5486-0344
  rDOCK(R)          3D
libRbt.so/2013.1/901 2013/11/27
 34 37  0  0  0  0  0  0  0  0999 V2000
  -18.9062   20.2217  -18.0646 C   0  0  0  0  0  0
  -18.1609   20.3153  -16.4659 C   0  0  0  0  0  0
  -17.8652   19.5330  -15.0278 C   0  0  0  0  0  0
  -16.8335   20.0276  -17.1070 O   0  0  0  0  0  0
  -16.3882   18.7597  -17.6208 C   0  0  0  0  0  0
  -17.0669   17.5778  -18.0482 C   0  0  0  0  0  0
  -16.4737   16.3364  -18.3385 C   0  0  0  0  0  0
  -15.1133   16.2703  -18.3976 C   0  0  0  0  0  0
  -14.3575   14.7590  -18.6889 Cl  0  0  0  0  0  0
  -14.3987   17.4577  -18.2668 C   0  0  0  0  0  0
  -15.0259   18.6791  -17.8815 C   0  0  0  0  0  0
  -18.9848   21.5654  -15.3861 C   0  0  0  0  0  0
  -18.4359   22.6536  -15.2214 O   0  0  0  0  0  0
  -20.2182   21.3350  -14.2180 N   0  0  0  0  0  0
  -21.3640   20.3794  -13.8630 C   0  0  0  0  0  0
  -21.8595   19.3924  -14.7480 C   0  0  0  0  0  0
  -21.5407   18.8074  -16.0747 C   0  0  0  0  0  0
  -22.9779   17.6832  -16.5056 S   0  0  0  0  0  0
  -24.0191   18.1023  -15.0511 C   0  0  0  0  0  0
  -23.1314   18.9933  -14.2709 C   0  0  0  0  0  0
  -23.4330   19.4957  -13.0974 N   0  0  0  0  0  0
  -22.4093   20.3382  -12.8017 N   0  0  0  0  0  0
  -22.8437   21.3120  -11.8032 C   0  0  0  0  0  0
  -23.4218   20.6413  -10.6446 C   0  0  0  0  0  0
  -23.6879   19.5160  -10.5038 O   0  0  0  0  0  0
  -23.5328   21.6388   -9.6824 N   0  0  0  0  0  0
  -23.3336   23.2885   -9.6902 C   0  0  0  0  0  0
  -22.0608   24.1439   -9.9231 C   0  0  0  0  0  0
  -21.5740   24.8516  -11.2335 C   0  0  0  0  0  0
  -20.9764   26.1361  -10.7672 C   0  0  0  0  0  0
  -21.6775   26.3358   -9.4501 C   0  0  0  0  0  0
  -21.9307   25.0612   -8.8648 O   0  0  0  0  0  0
  -20.0651   22.0381  -13.4850 H   0  0  0  0  0  0
  -23.6564   20.9770   -8.9011 H   0  0  0  0  0  0
  1  2  1  0  0  0
  2  3  1  0  0  0
  2  4  1  0  0  0
  2 12  1  0  0  0
  4  5  1  0  0  0
  5  6  2  0  0  0
  5 11  1  0  0  0
  6  7  1  0  0  0
  7  8  2  0  0  0
  8  9  1  0  0  0
  8 10  1  0  0  0
 10 11  2  0  0  0
 12 13  2  0  0  0
 12 14  1  0  0  0
 14 15  1  0  0  0
 14 33  1  0  0  0
 15 16  2  0  0  0
 15 22  1  0  0  0
 16 17  1  0  0  0
 16 20  1  0  0  0
 17 18  1  0  0  0
 18 19  1  0  0  0
 19 20  1  0  0  0
 20 21  2  0  0  0
 21 22  1  0  0  0
 22 23  1  0  0  0
 23 24  1  0  0  0
 24 25  2  0  0  0
 24 26  1  0  0  0
 26 27  1  0  0  0
 26 34  1  0  0  0
 27 28  1  0  0  0
 28 29  1  0  0  0
 28 32  1  0  0  0
 29 30  1  0  0  0
 30 31  1  0  0  0
 31 32  1  0  0  0
M  END
>  <CHROM.0>
176.84535714,66.94804964,-39.91244954,62.65427849,-30.80555455,-63.41035456
83.11253093,-51.57830823

>  <CHROM.1>
-73.71644845,-102.49849619,21.09138347,-12.85302983,-153.65479691,-8.78298366
-65.51388410,98.00693980,-20.01937361,20.08161896,-14.50402706,-0.92015730
0.37479725,0.61433595

>  <Name>
F5486-0344

>  <RI>
1.43466e+07

>  <Rbt.Current_Directory>
/home/adria/Escritorio/rDock_CMTR_LC/2pxcA_model/inputs_sah

>  <Rbt.Executable>
rbdock ($Id: //depot/dev/client3/rdock/2013.1/src/exe/rbdock.cxx#4 $)

>  <Rbt.Library>
libRbt.so (2013.1, Build901 2013/11/27)

>  <Rbt.Parameter_File>
/home/adria/Escritorio/rDock_2013.1_src/data/scripts/dock.prm

>  <Rbt.Receptor>
sah_rdock.prm

>  <SCORE>
-87.59

>  <SCORE.INTER>
-17.7254

>  <SCORE.INTER.CONST>
1

>  <SCORE.INTER.POLAR>
-0.991264

>  <SCORE.INTER.REPUL>
0

>  <SCORE.INTER.ROT>
8

>  <SCORE.INTER.VDW>
-27.7551

>  <SCORE.INTER.norm>
-0.55392

>  <SCORE.INTRA>
-65.5207

>  <SCORE.INTRA.DIHEDRAL>
-38.9098

>  <SCORE.INTRA.DIHEDRAL.0>
48.6786

>  <SCORE.INTRA.POLAR>
0

>  <SCORE.INTRA.POLAR.0>
0

>  <SCORE.INTRA.REPUL>
0

>  <SCORE.INTRA.REPUL.0>
0

>  <SCORE.INTRA.VDW>
-46.0658

>  <SCORE.INTRA.VDW.0>
44.3934

>  <SCORE.INTRA.norm>
-2.04752

>  <SCORE.RESTR>
0

>  <SCORE.RESTR.CAVITY>
0

>  <SCORE.RESTR.norm>
0

>  <SCORE.SYSTEM>
-4.34388

>  <SCORE.SYSTEM.CONST>
0

>  <SCORE.SYSTEM.DIHEDRAL>
8.81214

>  <SCORE.SYSTEM.POLAR>
-3.27796

>  <SCORE.SYSTEM.REPUL>
0.00772452

>  <SCORE.SYSTEM.VDW>
2.35648

>  <SCORE.SYSTEM.norm>
-0.135746

>  <SCORE.heavy>
32

>  <SCORE.norm>
-2.73719

$$$$
F5486-0344
  rDOCK(R)          3D
libRbt.so/2013.1/901 2013/11/27
 34 37  0  0  0  0  0  0  0  0999 V2000
  -18.9637   20.2432  -18.0422 C   0  0  0  0  0  0
  -18.2012   20.2790  -16.4493 C   0  0  0  0  0  0
  -17.8773   19.4399  -15.0498 C   0  0  0  0  0  0
  -16.8774   20.0394  -17.1169 O   0  0  0  0  0  0
  -16.3961   18.7880  -17.6386 C   0  0  0  0  0  0
  -17.0421   17.6031  -18.1064 C   0  0  0  0  0  0
  -16.4202   16.3766  -18.3998 C   0  0  0  0  0  0
  -15.0576   16.3332  -18.4188 C   0  0  0  0  0  0
  -14.2687   14.8394  -18.7127 Cl  0  0  0  0  0  0
  -14.3669   17.5293  -18.2461 C   0  0  0  0  0  0
  -15.0254   18.7337  -17.8593 C   0  0  0  0  0  0
  -19.0307   21.4686  -15.3073 C   0  0  0  0  0  0
  -18.4989   22.5592  -15.1062 O   0  0  0  0  0  0
  -20.2416   21.1682  -14.1317 N   0  0  0  0  0  0
  -21.3646   20.1779  -13.7995 C   0  0  0  0  0  0
  -21.9145   19.2767  -14.7419 C   0  0  0  0  0  0
  -21.6782   18.8213  -16.1351 C   0  0  0  0  0  0
  -23.1404   17.7362  -16.5819 S   0  0  0  0  0  0
  -24.0900   18.0108  -15.0333 C   0  0  0  0  0  0
  -23.1552   18.8282  -14.2280 C   0  0  0  0  0  0
  -23.3837   19.2160  -12.9960 N   0  0  0  0  0  0
  -22.3429   20.0315  -12.6850 N   0  0  0  0  0  0
  -22.7142   20.9044  -11.5740 C   0  0  0  0  0  0
  -23.2066   20.1234  -10.4453 C   0  0  0  0  0  0
  -22.6143   19.4432   -9.7081 O   0  0  0  0  0  0
  -24.5640   20.4177  -10.3820 N   0  0  0  0  0  0
  -25.6218   21.2409  -11.3641 C   0  0  0  0  0  0
  -25.9074   22.7611  -11.4792 C   0  0  0  0  0  0
  -27.0208   23.4963  -12.3006 C   0  0  0  0  0  0
  -27.4379   24.6353  -11.4328 C   0  0  0  0  0  0
  -27.0447   24.1361  -10.0681 C   0  0  0  0  0  0
  -25.8778   23.3271  -10.1919 O   0  0  0  0  0  0
  -20.0899   21.8436  -13.3728 H   0  0  0  0  0  0
  -24.6754   20.0552   -9.4229 H   0  0  0  0  0  0
  1  2  1  0  0  0
  2  3  1  0  0  0
  2  4  1  0  0  0
  2 12  1  0  0  0
  4  5  1  0  0  0
  5  6  2  0  0  0
  5 11  1  0  0  0
  6  7  1  0  0  0
  7  8  2  0  0  0
  8  9  1  0  0  0
  8 10  1  0  0  0
 10 11  2  0  0  0
 12 13  2  0  0  0
 12 14  1  0  0  0
 14 15  1  0  0  0
 14 33  1  0  0  0
 15 16  2  0  0  0
 15 22  1  0  0  0
 16 17  1  0  0  0
 16 20  1  0  0  0
 17 18  1  0  0  0
 18 19  1  0  0  0
 19 20  1  0  0  0
 20 21  2  0  0  0
 21 22  1  0  0  0
 22 23  1  0  0  0
 23 24  1  0  0  0
 24 25  2  0  0  0
 24 26  1  0  0  0
 26 27  1  0  0  0
 26 34  1  0  0  0
 27 28  1  0  0  0
 28 29  1  0  0  0
 28 32  1  0  0  0
 29 30  1  0  0  0
 30 31  1  0  0  0
 31 32  1  0  0  0
M  END
>  <CHROM.0>
-179.10391469,-71.20699458,76.71644744,-59.88698320,26.41682162,-176.14927358
-36.86986686,-168.16453073

>  <CHROM.1>
-76.60510063,-102.18722450,24.39018144,-17.03690459,-153.00363793,72.31104039
-82.79305740,-172.49561171,-20.82938704,19.68493492,-14.68508875,-0.61484800
0.38656306,0.45486458

>  <Name>
F5486-0344

>  <RI>
1.43466e+07

>  <Rbt.Current_Directory>
/home/adria/Escritorio/rDock_CMTR_LC/2pxcA_model/inputs_sah

>  <Rbt.Executable>
rbdock ($Id: //depot/dev/client3/rdock/2013.1/src/exe/rbdock.cxx#4 $)

>  <Rbt.Library>
libRbt.so (2013.1, Build901 2013/11/27)

>  <Rbt.Parameter_File>
/home/adria/Escritorio/rDock_2013.1_src/data/scripts/dock.prm

>  <Rbt.Receptor>
sah_rdock.prm

>  <SCORE>
-77.9603

>  <SCORE.INTER>
-15.536

>  <SCORE.INTER.CONST>
1

>  <SCORE.INTER.POLAR>
-1.62248

>  <SCORE.INTER.REPUL>
0.0101714

>  <SCORE.INTER.ROT>
8

>  <SCORE.INTER.VDW>
-23.4705

>  <SCORE.INTER.norm>
-0.485501

>  <SCORE.INTRA>
-67.2677

>  <SCORE.INTRA.DIHEDRAL>
-41.0889

>  <SCORE.INTRA.DIHEDRAL.0>
48.6786

>  <SCORE.INTRA.POLAR>
0

>  <SCORE.INTRA.POLAR.0>
0

>  <SCORE.INTRA.REPUL>
0

>  <SCORE.INTRA.REPUL.0>
0

>  <SCORE.INTRA.VDW>
-46.7232

>  <SCORE.INTRA.VDW.0>
44.3934

>  <SCORE.INTRA.norm>
-2.10211

>  <SCORE.RESTR>
0

>  <SCORE.RESTR.CAVITY>
0

>  <SCORE.RESTR.norm>
0

>  <SCORE.SYSTEM>
4.84336

>  <SCORE.SYSTEM.CONST>
0

>  <SCORE.SYSTEM.DIHEDRAL>
6.92904

>  <SCORE.SYSTEM.POLAR>
-3.76706

>  <SCORE.SYSTEM.REPUL>
0.0351776

>  <SCORE.SYSTEM.VDW>
14.011

>  <SCORE.SYSTEM.norm>
0.151355

>  <SCORE.heavy>
32

>  <SCORE.norm>
-2.43626

$$$$
F5486-0344
  rDOCK(R)          3D
libRbt.so/2013.1/901 2013/11/27
 34 37  0  0  0  0  0  0  0  0999 V2000
  -18.7268   21.8377  -15.4695 C   0  0  0  0  0  0
  -19.6258   20.9235  -14.2546 C   0  0  0  0  0  0
  -19.5517   20.0695  -12.8288 C   0  0  0  0  0  0
  -20.0831   22.2265  -13.6640 O   0  0  0  0  0  0
  -21.3992   22.5249  -13.1654 C   0  0  0  0  0  0
  -22.4923   21.7167  -12.7272 C   0  0  0  0  0  0
  -23.7988   22.1602  -12.4555 C   0  0  0  0  0  0
  -24.0307   23.5034  -12.4279 C   0  0  0  0  0  0
  -25.6249   24.0753  -12.1600 Cl  0  0  0  0  0  0
  -22.9386   24.3545  -12.5705 C   0  0  0  0  0  0
  -21.6472   23.8727  -12.9364 C   0  0  0  0  0  0
  -20.3040   19.3459  -14.9319 C   0  0  0  0  0  0
  -21.5202   19.1662  -14.8990 O   0  0  0  0  0  0
  -19.4901   17.8706  -15.2481 N   0  0  0  0  0  0
  -18.0931   17.3200  -15.5603 C   0  0  0  0  0  0
  -16.9865   18.1394  -15.8871 C   0  0  0  0  0  0
  -16.6313   19.5795  -15.9496 C   0  0  0  0  0  0
  -14.9398   19.6629  -16.7541 S   0  0  0  0  0  0
  -14.7928   17.8697  -17.1261 C   0  0  0  0  0  0
  -16.0104   17.3133  -16.4951 C   0  0  0  0  0  0
  -16.3018   16.0353  -16.4484 N   0  0  0  0  0  0
  -17.5428   15.9772  -15.8990 N   0  0  0  0  0  0
  -18.1766   14.7069  -16.2436 C   0  0  0  0  0  0
  -18.4158   14.6215  -17.6796 C   0  0  0  0  0  0
  -19.2923   15.0643  -18.3063 O   0  0  0  0  0  0
  -17.3121   13.9384  -18.1779 N   0  0  0  0  0  0
  -16.0341   13.1329  -17.4858 C   0  0  0  0  0  0
  -15.8913   12.5016  -16.0761 C   0  0  0  0  0  0
  -15.5903   13.2022  -14.7074 C   0  0  0  0  0  0
  -16.4184   12.4588  -13.7144 C   0  0  0  0  0  0
  -17.5007   11.8867  -14.5905 C   0  0  0  0  0  0
  -16.9510   11.5991  -15.8737 O   0  0  0  0  0  0
  -20.1722   17.1184  -15.0931 H   0  0  0  0  0  0
  -17.4840   14.2193  -19.1552 H   0  0  0  0  0  0
  1  2  1  0  0  0
  2  3  1  0  0  0
  2  4  1  0  0  0
  2 12  1  0  0  0
  4  5  1  0  0  0
  5  6  2  0  0  0
  5 11  1  0  0  0
  6  7  1  0  0  0
  7  8  2  0  0  0
  8  9  1  0  0  0
  8 10  1  0  0  0
 10 11  2  0  0  0
 12 13  2  0  0  0
 12 14  1  0  0  0
 14 15  1  0  0  0
 14 33  1  0  0  0
 15 16  2  0  0  0
 15 22  1  0  0  0
 16 17  1  0  0  0
 16 20  1  0  0  0
 17 18  1  0  0  0
 18 19  1  0  0  0
 19 20  1  0  0  0
 20 21  2  0  0  0
 21 22  1  0  0  0
 22 23  1  0  0  0
 23 24  1  0  0  0
 24 25  2  0  0  0
 24 26  1  0  0  0
 26 27  1  0  0  0
 26 34  1  0  0  0
 27 28  1  0  0  0
 28 29  1  0  0  0
 28 32  1  0  0  0
 29 30  1  0  0  0
 30 31  1  0  0  0
 31 32  1  0  0  0
M  END
>  <CHROM.0>
-179.55900774,-73.45816725,73.83819679,149.08073147,-31.46339496,59.99591573
84.19893083,-163.64618374

>  <CHROM.1>
139.44458532,-120.84320406,20.11261650,-10.76698604,88.00965503,-82.01411474
22.15817506,-79.08802512,-19.00055750,18.32735883,-15.05051754,-2.24165695
-0.43386766,-3.09019519

>  <Name>
F5486-0344

>  <RI>
1.43466e+07

>  <Rbt.Current_Directory>
/home/adria/Escritorio/rDock_CMTR_LC/2pxcA_model/inputs_sah

>  <Rbt.Executable>
rbdock ($Id: //depot/dev/client3/rdock/2013.1/src/exe/rbdock.cxx#4 $)

>  <Rbt.Library>
libRbt.so (2013.1, Build901 2013/11/27)

>  <Rbt.Parameter_File>
/home/adria/Escritorio/rDock_2013.1_src/data/scripts/dock.prm

>  <Rbt.Receptor>
sah_rdock.prm

>  <SCORE>
-83.8476

>  <SCORE.INTER>
-12.8787

>  <SCORE.INTER.CONST>
1

>  <SCORE.INTER.POLAR>
0

>  <SCORE.INTER.REPUL>
0.0343664

>  <SCORE.INTER.ROT>
8

>  <SCORE.INTER.VDW>
-26.4505

>  <SCORE.INTER.norm>
-0.402458

>  <SCORE.INTRA>
-66.9737

>  <SCORE.INTRA.DIHEDRAL>
-37.6817

>  <SCORE.INTRA.DIHEDRAL.0>
48.6786

>  <SCORE.INTRA.POLAR>
0

>  <SCORE.INTRA.POLAR.0>
0

>  <SCORE.INTRA.REPUL>
0

>  <SCORE.INTRA.REPUL.0>
0

>  <SCORE.INTRA.VDW>
-48.1329

>  <SCORE.INTRA.VDW.0>
44.3934

>  <SCORE.INTRA.norm>
-2.09293

>  <SCORE.RESTR>
0.043986

>  <SCORE.RESTR.CAVITY>
0.043986

>  <SCORE.RESTR.norm>
0.00137456

>  <SCORE.SYSTEM>
-4.03918

>  <SCORE.SYSTEM.CONST>
0

>  <SCORE.SYSTEM.DIHEDRAL>
10.0504

>  <SCORE.SYSTEM.POLAR>
-4.03937

>  <SCORE.SYSTEM.REPUL>
0.0393434

>  <SCORE.SYSTEM.VDW>
4.47278

>  <SCORE.SYSTEM.norm>
-0.126224

>  <SCORE.heavy>
32

>  <SCORE.norm>
-2.62024

$$$$
F5486-0344
  rDOCK(R)          3D
libRbt.so/2013.1/901 2013/11/27
 34 37  0  0  0  0  0  0  0  0999 V2000
  -20.4623   23.5512  -11.9301 C   0  0  0  0  0  0
  -20.9771   21.8688  -12.0868 C   0  0  0  0  0  0
  -21.6261   20.5421  -11.3212 C   0  0  0  0  0  0
  -22.2488   22.3542  -12.7215 O   0  0  0  0  0  0
  -23.3704   22.9487  -12.0444 C   0  0  0  0  0  0
  -23.5931   23.3808  -10.7014 C   0  0  0  0  0  0
  -24.8264   23.7608  -10.1430 C   0  0  0  0  0  0
  -25.8933   23.9102  -10.9784 C   0  0  0  0  0  0
  -27.4250   24.3130  -10.3212 Cl  0  0  0  0  0  0
  -25.6717   23.7758  -12.3460 C   0  0  0  0  0  0
  -24.4328   23.2998  -12.8680 C   0  0  0  0  0  0
  -19.5583   20.7348  -12.4164 C   0  0  0  0  0  0
  -18.5095   20.9098  -11.7984 O   0  0  0  0  0  0
  -19.2975   19.6956  -13.7546 N   0  0  0  0  0  0
  -20.0637   18.9368  -14.8451 C   0  0  0  0  0  0
  -21.4756   18.8517  -14.8912 C   0  0  0  0  0  0
  -22.6607   19.4097  -14.1926 C   0  0  0  0  0  0
  -24.1428   18.4697  -14.8521 S   0  0  0  0  0  0
  -23.1982   17.2866  -15.8928 C   0  0  0  0  0  0
  -21.8091   17.7770  -15.7506 C   0  0  0  0  0  0
  -20.7770   17.2702  -16.3819 N   0  0  0  0  0  0
  -19.6994   17.9258  -15.8774 N   0  0  0  0  0  0
  -18.4903   17.1391  -16.1078 C   0  0  0  0  0  0
  -17.3088   17.9937  -16.1022 C   0  0  0  0  0  0
  -16.9592   18.7591  -15.2967 O   0  0  0  0  0  0
  -16.6229   17.6497  -17.2618 N   0  0  0  0  0  0
  -16.9723   16.7013  -18.5807 C   0  0  0  0  0  0
  -17.3100   15.1899  -18.6680 C   0  0  0  0  0  0
  -18.4710   14.3969  -17.9766 C   0  0  0  0  0  0
  -18.8978   13.3926  -18.9932 C   0  0  0  0  0  0
  -18.4472   14.0461  -20.2723 C   0  0  0  0  0  0
  -17.2593   14.7907  -20.0157 O   0  0  0  0  0  0
  -18.2812   19.6463  -13.8959 H   0  0  0  0  0  0
  -15.7397   18.0888  -16.9604 H   0  0  0  0  0  0
  1  2  1  0  0  0
  2  3  1  0  0  0
  2  4  1  0  0  0
  2 12  1  0  0  0
  4  5  1  0  0  0
  5  6  2  0  0  0
  5 11  1  0  0  0
  6  7  1  0  0  0
  7  8  2  0  0  0
  8  9  1  0  0  0
  8 10  1  0  0  0
 10 11  2  0  0  0
 12 13  2  0  0  0
 12 14  1  0  0  0
 14 15  1  0  0  0
 14 33  1  0  0  0
 15 16  2  0  0  0
 15 22  1  0  0  0
 16 17  1  0  0  0
 16 20  1  0  0  0
 17 18  1  0  0  0
 18 19  1  0  0  0
 19 20  1  0  0  0
 20 21  2  0  0  0
 21 22  1  0  0  0
 22 23  1  0  0  0
 23 24  1  0  0  0
 24 25  2  0  0  0
 24 26  1  0  0  0
 26 27  1  0  0  0
 26 34  1  0  0  0
 27 28  1  0  0  0
 28 29  1  0  0  0
 28 32  1  0  0  0
 29 30  1  0  0  0
 30 31  1  0  0  0
 31 32  1  0  0  0
M  END
>  <CHROM.0>
-179.77731763,66.12880622,71.36381377,66.05728768,-30.76497116,-75.65343018
-156.09246906,-162.28938211

>  <CHROM.1>
-76.02460415,41.52942143,7.61741902,-6.84315552,-50.03016611,52.84917455
-60.12169662,58.15693949,-21.21538069,19.53838690,-14.47008008,-2.15688032
0.00256826,-2.40612147

>  <Name>
F5486-0344

>  <RI>
1.43466e+07

>  <Rbt.Current_Directory>
/home/adria/Escritorio/rDock_CMTR_LC/2pxcA_model/inputs_sah

>  <Rbt.Executable>
rbdock ($Id: //depot/dev/client3/rdock/2013.1/src/exe/rbdock.cxx#4 $)

>  <Rbt.Library>
libRbt.so (2013.1, Build901 2013/11/27)

>  <Rbt.Parameter_File>
/home/adria/Escritorio/rDock_2013.1_src/data/scripts/dock.prm

>  <Rbt.Receptor>
sah_rdock.prm

>  <SCORE>
-86.3787

>  <SCORE.INTER>
-9.55266

>  <SCORE.INTER.CONST>
1

>  <SCORE.INTER.POLAR>
-0.584531

>  <SCORE.INTER.REPUL>
0.0496593

>  <SCORE.INTER.ROT>
8

>  <SCORE.INTER.VDW>
-21.2136

>  <SCORE.INTER.norm>
-0.298521

>  <SCORE.INTRA>
-70.102

>  <SCORE.INTRA.DIHEDRAL>
-40.8738

>  <SCORE.INTRA.DIHEDRAL.0>
48.6786

>  <SCORE.INTRA.POLAR>
-0.733978

>  <SCORE.INTRA.POLAR.0>
0

>  <SCORE.INTRA.REPUL>
0

>  <SCORE.INTRA.REPUL.0>
0

>  <SCORE.INTRA.VDW>
-47.1695

>  <SCORE.INTRA.VDW.0>
44.3934

>  <SCORE.INTRA.norm>
-2.19069

>  <SCORE.RESTR>
0

>  <SCORE.RESTR.CAVITY>
0

>  <SCORE.RESTR.norm>
0

>  <SCORE.SYSTEM>
-6.72404

>  <SCORE.SYSTEM.CONST>
0

>  <SCORE.SYSTEM.DIHEDRAL>
6.37936

>  <SCORE.SYSTEM.POLAR>
-3.76334

>  <SCORE.SYSTEM.VDW>
2.88164

>  <SCORE.SYSTEM.norm>
-0.210126

>  <SCORE.heavy>
32

>  <SCORE.norm>
-2.69933

$$$$
F5486-0344
  rDOCK(R)          3D
libRbt.so/2013.1/901 2013/11/27
 34 37  0  0  0  0  0  0  0  0999 V2000
  -18.4517   20.2107  -12.5861 C   0  0  0  0  0  0
  -18.9919   19.6945  -14.1866 C   0  0  0  0  0  0
  -19.9550   20.0348  -15.4997 C   0  0  0  0  0  0
  -17.7108   20.2349  -14.7542 O   0  0  0  0  0  0
  -17.0009   19.7282  -15.8984 C   0  0  0  0  0  0
  -17.2994   18.7364  -16.8819 C   0  0  0  0  0  0
  -16.4053   18.2095  -17.8307 C   0  0  0  0  0  0
  -15.1857   18.8036  -17.9663 C   0  0  0  0  0  0
  -14.0499   18.1477  -19.0708 Cl  0  0  0  0  0  0
  -14.9393   19.9577  -17.2282 C   0  0  0  0  0  0
  -15.8304   20.4087  -16.2101 C   0  0  0  0  0  0
  -19.9792   18.1362  -14.1187 C   0  0  0  0  0  0
  -19.3879   17.0610  -14.2018 O   0  0  0  0  0  0
  -21.6610   17.9142  -14.3658 N   0  0  0  0  0  0
  -22.9906   18.6747  -14.2882 C   0  0  0  0  0  0
  -24.0796   18.4333  -15.1591 C   0  0  0  0  0  0
  -24.4765   17.4840  -16.2293 C   0  0  0  0  0  0
  -26.0630   18.1621  -16.9630 S   0  0  0  0  0  0
  -26.1005   19.7181  -15.9870 C   0  0  0  0  0  0
  -24.9467   19.5495  -15.0755 C   0  0  0  0  0  0
  -24.6170   20.4005  -14.1334 N   0  0  0  0  0  0
  -23.4484   19.9289  -13.6265 N   0  0  0  0  0  0
  -22.7330   21.0075  -12.9488 C   0  0  0  0  0  0
  -21.8279   20.4724  -11.9385 C   0  0  0  0  0  0
  -21.2052   19.4880  -11.9569 O   0  0  0  0  0  0
  -21.8043   21.4415  -10.9417 N   0  0  0  0  0  0
  -22.6704   22.8290  -10.6490 C   0  0  0  0  0  0
  -23.3519   23.8129  -11.6357 C   0  0  0  0  0  0
  -22.7851   24.4352  -12.9573 C   0  0  0  0  0  0
  -23.9527   24.4763  -13.8843 C   0  0  0  0  0  0
  -24.8314   23.3959  -13.3126 C   0  0  0  0  0  0
  -24.6574   23.3604  -11.8985 O   0  0  0  0  0  0
  -21.7780   16.9794  -14.7752 H   0  0  0  0  0  0
  -20.9509   21.0712  -10.4963 H   0  0  0  0  0  0
  1  2  1  0  0  0
  2  3  1  0  0  0
  2  4  1  0  0  0
  2 12  1  0  0  0
  4  5  1  0  0  0
  5  6  2  0  0  0
  5 11  1  0  0  0
  6  7  1  0  0  0
  7  8  2  0  0  0
  8  9  1  0  0  0
  8 10  1  0  0  0
 10 11  2  0  0  0
 12 13  2  0  0  0
 12 14  1  0  0  0
 14 15  1  0  0  0
 14 33  1  0  0  0
 15 16  2  0  0  0
 15 22  1  0  0  0
 16 17  1  0  0  0
 16 20  1  0  0  0
 17 18  1  0  0  0
 18 19  1  0  0  0
 19 20  1  0  0  0
 20 21  2  0  0  0
 21 22  1  0  0  0
 22 23  1  0  0  0
 23 24  1  0  0  0
 24 25  2  0  0  0
 24 26  1  0  0  0
 26 27  1  0  0  0
 26 34  1  0  0  0
 27 28  1  0  0  0
 28 29  1  0  0  0
 28 32  1  0  0  0
 29 30  1  0  0  0
 30 31  1  0  0  0
 31 32  1  0  0  0
M  END
>  <CHROM.0>
178.18175167,-74.09664342,-164.62416905,153.18902686,-34.52509764,64.43395214
-156.94469778,-55.53081330

>  <CHROM.1>
148.69714932,-89.25029122,7.40823217,146.49916127,-51.14383917,35.17176470
-29.68458863,-45.89128555,-20.95857195,19.99733059,-14.75109742,-0.47748383
0.09608770,0.80300452

>  <Name>
F5486-0344

>  <RI>
1.43466e+07

>  <Rbt.Current_Directory>
/home/adria/Escritorio/rDock_CMTR_LC/2pxcA_model/inputs_sah

>  <Rbt.Executable>
rbdock ($Id: //depot/dev/client3/rdock/2013.1/src/exe/rbdock.cxx#4 $)

>  <Rbt.Library>
libRbt.so (2013.1, Build901 2013/11/27)

>  <Rbt.Parameter_File>
/home/adria/Escritorio/rDock_2013.1_src/data/scripts/dock.prm

>  <Rbt.Receptor>
sah_rdock.prm

>  <SCORE>
-72.2318

>  <SCORE.INTER>
-6.52485

>  <SCORE.INTER.CONST>
1

>  <SCORE.INTER.POLAR>
0

>  <SCORE.INTER.REPUL>
0.000713928

>  <SCORE.INTER.ROT>
8

>  <SCORE.INTER.VDW>
-19.9284

>  <SCORE.INTER.norm>
-0.203902

>  <SCORE.INTRA>
-64.1685

>  <SCORE.INTRA.DIHEDRAL>
-32.1416

>  <SCORE.INTRA.DIHEDRAL.0>
48.6786

>  <SCORE.INTRA.POLAR>
0

>  <SCORE.INTRA.POLAR.0>
0

>  <SCORE.INTRA.REPUL>
0

>  <SCORE.INTRA.REPUL.0>
0

>  <SCORE.INTRA.VDW>
-48.0977

>  <SCORE.INTRA.VDW.0>
44.3934

>  <SCORE.INTRA.norm>
-2.00527

>  <SCORE.RESTR>
0

>  <SCORE.RESTR.CAVITY>
0

>  <SCORE.RESTR.norm>
0

>  <SCORE.SYSTEM>
-1.53843

>  <SCORE.SYSTEM.CONST>
0

>  <SCORE.SYSTEM.DIHEDRAL>
11.7311

>  <SCORE.SYSTEM.POLAR>
-3.62034

>  <SCORE.SYSTEM.REPUL>
0.0404348

>  <SCORE.SYSTEM.VDW>
4.70298

>  <SCORE.SYSTEM.norm>
-0.048076

>  <SCORE.heavy>
32

>  <SCORE.norm>
-2.25724

$$$$
F5486-0344
  rDOCK(R)          3D
libRbt.so/2013.1/901 2013/11/27
 34 37  0  0  0  0  0  0  0  0999 V2000
  -18.4217   20.3254  -12.4153 C   0  0  0  0  0  0
  -19.2399   20.8040  -13.9058 C   0  0  0  0  0  0
  -19.4308   21.9833  -15.0636 C   0  0  0  0  0  0
  -18.2682   19.9519  -14.6709 O   0  0  0  0  0  0
  -18.4220   18.5584  -14.9941 C   0  0  0  0  0  0
  -19.3461   17.5493  -14.5844 C   0  0  0  0  0  0
  -19.2398   16.1705  -14.8392 C   0  0  0  0  0  0
  -18.2730   15.7473  -15.7023 C   0  0  0  0  0  0
  -18.0777   14.0677  -15.9869 Cl  0  0  0  0  0  0
  -17.5163   16.7157  -16.3560 C   0  0  0  0  0  0
  -17.5880   18.0959  -16.0044 C   0  0  0  0  0  0
  -21.0553   21.0317  -13.6608 C   0  0  0  0  0  0
  -21.8097   20.1074  -13.9591 O   0  0  0  0  0  0
  -21.9416   22.4851  -13.4581 N   0  0  0  0  0  0
  -21.7691   23.9333  -12.9839 C   0  0  0  0  0  0
  -20.8321   24.3254  -11.9984 C   0  0  0  0  0  0
  -19.7181   23.7427  -11.2088 C   0  0  0  0  0  0
  -19.2353   25.0466   -9.9511 S   0  0  0  0  0  0
  -20.5650   26.2446  -10.3657 C   0  0  0  0  0  0
  -21.2180   25.6044  -11.5295 C   0  0  0  0  0  0
  -22.1992   26.1406  -12.2152 N   0  0  0  0  0  0
  -22.5733   25.1822  -13.1022 N   0  0  0  0  0  0
  -23.9344   25.4418  -13.5650 C   0  0  0  0  0  0
  -24.6361   24.1921  -13.8337 C   0  0  0  0  0  0
  -25.0096   23.7628  -14.8502 O   0  0  0  0  0  0
  -24.7127   23.5611  -12.5971 N   0  0  0  0  0  0
  -24.3664   24.0160  -11.0369 C   0  0  0  0  0  0
  -25.1167   23.7123   -9.7137 C   0  0  0  0  0  0
  -26.5468   24.1676   -9.2636 C   0  0  0  0  0  0
  -27.0978   22.9971   -8.5216 C   0  0  0  0  0  0
  -26.2949   21.8644   -9.1034 C   0  0  0  0  0  0
  -24.9909   22.3414   -9.4251 O   0  0  0  0  0  0
  -22.8681   22.3255  -13.8719 H   0  0  0  0  0  0
  -24.9399   22.6380  -12.9970 H   0  0  0  0  0  0
  1  2  1  0  0  0
  2  3  1  0  0  0
  2  4  1  0  0  0
  2 12  1  0  0  0
  4  5  1  0  0  0
  5  6  2  0  0  0
  5 11  1  0  0  0
  6  7  1  0  0  0
  7  8  2  0  0  0
  8  9  1  0  0  0
  8 10  1  0  0  0
 10 11  2  0  0  0
 12 13  2  0  0  0
 12 14  1  0  0  0
 14 15  1  0  0  0
 14 33  1  0  0  0
 15 16  2  0  0  0
 15 22  1  0  0  0
 16 17  1  0  0  0
 16 20  1  0  0  0
 17 18  1  0  0  0
 18 19  1  0  0  0
 19 20  1  0  0  0
 20 21  2  0  0  0
 21 22  1  0  0  0
 22 23  1  0  0  0
 23 24  1  0  0  0
 24 25  2  0  0  0
 24 26  1  0  0  0
 26 27  1  0  0  0
 26 34  1  0  0  0
 27 28  1  0  0  0
 28 29  1  0  0  0
 28 32  1  0  0  0
 29 30  1  0  0  0
 30 31  1  0  0  0
 31 32  1  0  0  0
M  END
>  <CHROM.0>
-52.79794887,-76.43556852,-12.69640195,66.00343587,38.46969263,55.46593136
-156.43827079,-162.77597414

>  <CHROM.1>
89.33096983,-97.40089299,-10.03244895,-29.64731586,6.49783709,-113.22134209
140.70990971,-65.26417960,-21.36576472,21.67441301,-12.84410696,-0.99100017
0.28783320,0.34842512

>  <Name>
F5486-0344

>  <RI>
1.43466e+07

>  <Rbt.Current_Directory>
/home/adria/Escritorio/rDock_CMTR_LC/2pxcA_model/inputs_sah

>  <Rbt.Executable>
rbdock ($Id: //depot/dev/client3/rdock/2013.1/src/exe/rbdock.cxx#4 $)

>  <Rbt.Library>
libRbt.so (2013.1, Build901 2013/11/27)

>  <Rbt.Parameter_File>
/home/adria/Escritorio/rDock_2013.1_src/data/scripts/dock.prm

>  <Rbt.Receptor>
sah_rdock.prm

>  <SCORE>
-76.2612

>  <SCORE.INTER>
-16.0316

>  <SCORE.INTER.CONST>
1

>  <SCORE.INTER.POLAR>
-1.10676

>  <SCORE.INTER.REPUL>
0.0222934

>  <SCORE.INTER.ROT>
8

>  <SCORE.INTER.VDW>
-25.78

>  <SCORE.INTER.norm>
-0.500986

>  <SCORE.INTRA>
-64.9383

>  <SCORE.INTRA.DIHEDRAL>
-32.4089

>  <SCORE.INTRA.DIHEDRAL.0>
48.6786

>  <SCORE.INTRA.POLAR>
0

>  <SCORE.INTRA.POLAR.0>
0

>  <SCORE.INTRA.REPUL>
0

>  <SCORE.INTRA.REPUL.0>
0

>  <SCORE.INTRA.VDW>
-48.7339

>  <SCORE.INTRA.VDW.0>
44.3934

>  <SCORE.INTRA.norm>
-2.02932

>  <SCORE.RESTR>
0.000196305

>  <SCORE.RESTR.CAVITY>
0.000196305

>  <SCORE.RESTR.norm>
6.13453e-06

>  <SCORE.SYSTEM>
4.70849

>  <SCORE.SYSTEM.CONST>
0

>  <SCORE.SYSTEM.DIHEDRAL>
8.63

>  <SCORE.SYSTEM.POLAR>
-4.34476

>  <SCORE.SYSTEM.REPUL>
0.044085

>  <SCORE.SYSTEM.VDW>
14.9452

>  <SCORE.SYSTEM.norm>
0.14714

>  <SCORE.heavy>
32

>  <SCORE.norm>
-2.38316

$$$$
F5486-0344
  rDOCK(R)          3D
libRbt.so/2013.1/901 2013/11/27
 34 37  0  0  0  0  0  0  0  0999 V2000
  -25.9508   24.2012   -9.8679 C   0  0  0  0  0  0
  -25.6932   22.4547   -9.8095 C   0  0  0  0  0  0
  -25.9935   21.0370   -8.9925 C   0  0  0  0  0  0
  -26.7657   22.2975  -10.8491 O   0  0  0  0  0  0
  -26.5705   22.1885  -12.2703 C   0  0  0  0  0  0
  -25.4115   22.1156  -13.1018 C   0  0  0  0  0  0
  -25.3856   22.2152  -14.5042 C   0  0  0  0  0  0
  -26.5736   22.2040  -15.1730 C   0  0  0  0  0  0
  -26.5794   22.3852  -16.8781 Cl  0  0  0  0  0  0
  -27.7338   21.9927  -14.4335 C   0  0  0  0  0  0
  -27.7312   21.9890  -13.0074 C   0  0  0  0  0  0
  -23.9247   22.0220   -9.5048 C   0  0  0  0  0  0
  -23.2917   22.6798   -8.6808 O   0  0  0  0  0  0
  -22.8587   21.0964  -10.4772 N   0  0  0  0  0  0
  -22.8675   19.9989  -11.5485 C   0  0  0  0  0  0
  -23.9964   19.1936  -11.8314 C   0  0  0  0  0  0
  -25.4290   19.0913  -11.4558 C   0  0  0  0  0  0
  -26.0498   17.4896  -12.2072 S   0  0  0  0  0  0
  -24.4291   16.9169  -12.8556 C   0  0  0  0  0  0
  -23.5419   18.0613  -12.5496 C   0  0  0  0  0  0
  -22.2786   18.1316  -12.8954 N   0  0  0  0  0  0
  -21.8195   19.2735  -12.3205 N   0  0  0  0  0  0
  -20.3647   19.2155  -12.2000 C   0  0  0  0  0  0
  -19.8011   20.5562  -12.0930 C   0  0  0  0  0  0
  -20.1122   21.4301  -11.3883 O   0  0  0  0  0  0
  -18.7352   20.5597  -12.9858 N   0  0  0  0  0  0
  -18.1886   19.5047  -14.1473 C   0  0  0  0  0  0
  -17.8393   19.7482  -15.6389 C   0  0  0  0  0  0
  -17.5197   18.7020  -16.7606 C   0  0  0  0  0  0
  -18.1491   19.2649  -17.9900 C   0  0  0  0  0  0
  -19.2146   20.1531  -17.4051 C   0  0  0  0  0  0
  -18.7439   20.6854  -16.1696 O   0  0  0  0  0  0
  -21.9171   21.4795  -10.3294 H   0  0  0  0  0  0
  -18.3027   21.4054  -12.5839 H   0  0  0  0  0  0
  1  2  1  0  0  0
  2  3  1  0  0  0
  2  4  1  0  0  0
  2 12  1  0  0  0
  4  5  1  0  0  0
  5  6  2  0  0  0
  5 11  1  0  0  0
  6  7  1  0  0  0
  7  8  2  0  0  0
  8  9  1  0  0  0
  8 10  1  0  0  0
 10 11  2  0  0  0
 12 13  2  0  0  0
 12 14  1  0  0  0
 14 15  1  0  0  0
 14 33  1  0  0  0
 15 16  2  0  0  0
 15 22  1  0  0  0
 16 17  1  0  0  0
 16 20  1  0  0  0
 17 18  1  0  0  0
 18 19  1  0  0  0
 19 20  1  0  0  0
 20 21  2  0  0  0
 21 22  1  0  0  0
 22 23  1  0  0  0
 23 24  1  0  0  0
 24 25  2  0  0  0
 24 26  1  0  0  0
 26 27  1  0  0  0
 26 34  1  0  0  0
 27 28  1  0  0  0
 28 29  1  0  0  0
 28 32  1  0  0  0
 29 30  1  0  0  0
 30 31  1  0  0  0
 31 32  1  0  0  0
M  END
>  <CHROM.0>
-66.50819751,61.48321271,-44.76841505,63.46181398,-30.74959491,-58.40669149
83.92599207,-157.55191709

>  <CHROM.1>
95.43196674,41.20205844,4.17418784,-15.12902670,-48.76302912,49.68177097
128.34406078,-170.43358503,-23.30970892,20.56561942,-13.01148923,-2.72324418
0.26337003,-1.55429894

>  <Name>
F5486-0344

>  <RI>
1.43466e+07

>  <Rbt.Current_Directory>
/home/adria/Escritorio/rDock_CMTR_LC/2pxcA_model/inputs_sah

>  <Rbt.Executable>
rbdock ($Id: //depot/dev/client3/rdock/2013.1/src/exe/rbdock.cxx#4 $)

>  <Rbt.Library>
libRbt.so (2013.1, Build901 2013/11/27)

>  <Rbt.Parameter_File>
/home/adria/Escritorio/rDock_2013.1_src/data/scripts/dock.prm

>  <Rbt.Receptor>
sah_rdock.prm

>  <SCORE>
-82.946

>  <SCORE.INTER>
-6.46179

>  <SCORE.INTER.CONST>
1

>  <SCORE.INTER.POLAR>
-0.916515

>  <SCORE.INTER.REPUL>
0

>  <SCORE.INTER.ROT>
8

>  <SCORE.INTER.VDW>
-16.7456

>  <SCORE.INTER.norm>
-0.201931

>  <SCORE.INTRA>
-69.8454

>  <SCORE.INTRA.DIHEDRAL>
-36.7792

>  <SCORE.INTRA.DIHEDRAL.0>
48.6786

>  <SCORE.INTRA.POLAR>
-0.702725

>  <SCORE.INTRA.POLAR.0>
0

>  <SCORE.INTRA.REPUL>
0

>  <SCORE.INTRA.REPUL.0>
0

>  <SCORE.INTRA.VDW>
-49.0666

>  <SCORE.INTRA.VDW.0>
44.3934

>  <SCORE.INTRA.norm>
-2.18267

>  <SCORE.RESTR>
0.331192

>  <SCORE.RESTR.CAVITY>
0.331192

>  <SCORE.RESTR.norm>
0.0103497

>  <SCORE.SYSTEM>
-6.96993

>  <SCORE.SYSTEM.CONST>
0

>  <SCORE.SYSTEM.DIHEDRAL>
6.22191

>  <SCORE.SYSTEM.POLAR>
-3.69313

>  <SCORE.SYSTEM.VDW>
2.47575

>  <SCORE.SYSTEM.norm>
-0.21781

>  <SCORE.heavy>
32

>  <SCORE.norm>
-2.59206

$$$$
F5486-0344
  rDOCK(R)          3D
libRbt.so/2013.1/901 2013/11/27
 34 37  0  0  0  0  0  0  0  0999 V2000
  -20.2019   19.9772  -15.6238 C   0  0  0  0  0  0
  -19.3211   20.6533  -14.2500 C   0  0  0  0  0  0
  -18.5005   20.3344  -12.8385 C   0  0  0  0  0  0
  -18.1158   20.7900  -15.1356 O   0  0  0  0  0  0
  -17.3020   19.7184  -15.6447 C   0  0  0  0  0  0
  -17.4318   18.2960  -15.6393 C   0  0  0  0  0  0
  -16.4405   17.3685  -16.0059 C   0  0  0  0  0  0
  -15.3027   17.8389  -16.5913 C   0  0  0  0  0  0
  -14.0493   16.7403  -16.9943 Cl  0  0  0  0  0  0
  -15.2357   19.1985  -16.8820 C   0  0  0  0  0  0
  -16.2169   20.1212  -16.4132 C   0  0  0  0  0  0
  -20.4104   21.6630  -13.1539 C   0  0  0  0  0  0
  -20.2457   22.8814  -13.1218 O   0  0  0  0  0  0
  -21.3780   21.1555  -11.8329 N   0  0  0  0  0  0
  -22.0974   19.9166  -11.2854 C   0  0  0  0  0  0
  -22.2675   18.7223  -12.0254 C   0  0  0  0  0  0
  -21.8407   18.1275  -13.3169 C   0  0  0  0  0  0
  -22.8185   16.5390  -13.5056 S   0  0  0  0  0  0
  -23.8562   16.7486  -12.0041 C   0  0  0  0  0  0
  -23.2916   17.9742  -11.3961 C   0  0  0  0  0  0
  -23.6823   18.4797  -10.2505 N   0  0  0  0  0  0
  -23.0009   19.6488  -10.1311 N   0  0  0  0  0  0
  -23.6899   20.5281   -9.1897 C   0  0  0  0  0  0
  -24.3676   19.7514   -8.1582 C   0  0  0  0  0  0
  -23.9706   18.8486   -7.5381 O   0  0  0  0  0  0
  -25.6039   20.3700   -8.0103 N   0  0  0  0  0  0
  -26.4138   21.5616   -8.8382 C   0  0  0  0  0  0
  -26.7585   21.6783  -10.3460 C   0  0  0  0  0  0
  -27.1284   22.9537  -11.1776 C   0  0  0  0  0  0
  -26.4802   22.7390  -12.5035 C   0  0  0  0  0  0
  -25.3744   21.7812  -12.1485 C   0  0  0  0  0  0
  -25.8161   20.9410  -11.0853 O   0  0  0  0  0  0
  -21.4010   21.9371  -11.1668 H   0  0  0  0  0  0
  -25.8058   19.9203   -7.1044 H   0  0  0  0  0  0
  1  2  1  0  0  0
  2  3  1  0  0  0
  2  4  1  0  0  0
  2 12  1  0  0  0
  4  5  1  0  0  0
  5  6  2  0  0  0
  5 11  1  0  0  0
  6  7  1  0  0  0
  7  8  2  0  0  0
  8  9  1  0  0  0
  8 10  1  0  0  0
 10 11  2  0  0  0
 12 13  2  0  0  0
 12 14  1  0  0  0
 14 15  1  0  0  0
 14 33  1  0  0  0
 15 16  2  0  0  0
 15 22  1  0  0  0
 16 17  1  0  0  0
 16 20  1  0  0  0
 17 18  1  0  0  0
 18 19  1  0  0  0
 19 20  1  0  0  0
 20 21  2  0  0  0
 21 22  1  0  0  0
 22 23  1  0  0  0
 23 24  1  0  0  0
 24 25  2  0  0  0
 24 26  1  0  0  0
 26 27  1  0  0  0
 26 34  1  0  0  0
 27 28  1  0  0  0
 28 29  1  0  0  0
 28 32  1  0  0  0
 29 30  1  0  0  0
 30 31  1  0  0  0
 31 32  1  0  0  0
M  END
>  <CHROM.0>
-57.61229825,68.05322943,111.39903182,66.34626548,-31.94538391,58.89691664
-175.20230491,-167.29393007

>  <CHROM.1>
-70.80164705,-110.58185134,8.85024918,-10.23665879,-174.90092959,45.58716394
53.46502823,-159.77318502,-21.30718257,19.59122744,-12.77108422,-0.08049512
0.61376700,-0.21542085

>  <Name>
F5486-0344

>  <RI>
1.43466e+07

>  <Rbt.Current_Directory>
/home/adria/Escritorio/rDock_CMTR_LC/2pxcA_model/inputs_sah

>  <Rbt.Executable>
rbdock ($Id: //depot/dev/client3/rdock/2013.1/src/exe/rbdock.cxx#4 $)

>  <Rbt.Library>
libRbt.so (2013.1, Build901 2013/11/27)

>  <Rbt.Parameter_File>
/home/adria/Escritorio/rDock_2013.1_src/data/scripts/dock.prm

>  <Rbt.Receptor>
sah_rdock.prm

>  <SCORE>
-83.6743

>  <SCORE.INTER>
-10.5277

>  <SCORE.INTER.CONST>
1

>  <SCORE.INTER.POLAR>
-0.82471

>  <SCORE.INTER.REPUL>
0.432593

>  <SCORE.INTER.ROT>
8

>  <SCORE.INTER.VDW>
-23.2866

>  <SCORE.INTER.norm>
-0.32899

>  <SCORE.INTRA>
-67.1059

>  <SCORE.INTRA.DIHEDRAL>
-41.48

>  <SCORE.INTRA.DIHEDRAL.0>
48.6786

>  <SCORE.INTRA.POLAR>
0

>  <SCORE.INTRA.POLAR.0>
0

>  <SCORE.INTRA.REPUL>
0

>  <SCORE.INTRA.REPUL.0>
0

>  <SCORE.INTRA.VDW>
-46.3659

>  <SCORE.INTRA.VDW.0>
44.3934

>  <SCORE.INTRA.norm>
-2.09706

>  <SCORE.RESTR>
0.0530399

>  <SCORE.RESTR.CAVITY>
0.0530399

>  <SCORE.RESTR.norm>
0.0016575

>  <SCORE.SYSTEM>
-6.09378

>  <SCORE.SYSTEM.CONST>
0

>  <SCORE.SYSTEM.DIHEDRAL>
7.48692

>  <SCORE.SYSTEM.POLAR>
-3.77056

>  <SCORE.SYSTEM.VDW>
2.98268

>  <SCORE.SYSTEM.norm>
-0.19043

>  <SCORE.heavy>
32

>  <SCORE.norm>
-2.61482

$$$$
F5486-0344
  rDOCK(R)          3D
libRbt.so/2013.1/901 2013/11/27
 34 37  0  0  0  0  0  0  0  0999 V2000
  -21.2269   18.7671  -16.9152 C   0  0  0  0  0  0
  -20.3775   18.3671  -15.4191 C   0  0  0  0  0  0
  -20.4380   17.5604  -13.9654 C   0  0  0  0  0  0
  -19.6093   17.3221  -16.1764 O   0  0  0  0  0  0
  -18.3669   17.5129  -16.8764 C   0  0  0  0  0  0
  -17.5847   16.6836  -17.7368 C   0  0  0  0  0  0
  -16.2785   16.9479  -18.1856 C   0  0  0  0  0  0
  -15.7493   18.1799  -17.9391 C   0  0  0  0  0  0
  -14.1373   18.5132  -18.4193 Cl  0  0  0  0  0  0
  -16.5721   19.1340  -17.3472 C   0  0  0  0  0  0
  -17.8564   18.8039  -16.8223 C   0  0  0  0  0  0
  -20.1036   19.8513  -14.3562 C   0  0  0  0  0  0
  -18.9673   20.3146  -14.2741 O   0  0  0  0  0  0
  -21.0986   20.4843  -13.1120 N   0  0  0  0  0  0
  -22.5605   20.5121  -12.6491 C   0  0  0  0  0  0
  -23.6279   19.9674  -13.4019 C   0  0  0  0  0  0
  -23.8438   19.1691  -14.6349 C   0  0  0  0  0  0
  -25.6949   19.1633  -14.9325 S   0  0  0  0  0  0
  -26.1343   20.3037  -13.5607 C   0  0  0  0  0  0
  -24.8302   20.5157  -12.8936 C   0  0  0  0  0  0
  -24.6639   21.2226  -11.8013 N   0  0  0  0  0  0
  -23.3200   21.2575  -11.6061 N   0  0  0  0  0  0
  -22.9744   22.3908  -10.7515 C   0  0  0  0  0  0
  -23.6305   22.2788   -9.4540 C   0  0  0  0  0  0
  -24.2586   21.3981   -9.0217 O   0  0  0  0  0  0
  -23.2866   23.4488   -8.7861 N   0  0  0  0  0  0
  -22.5235   24.8574   -9.2271 C   0  0  0  0  0  0
  -21.2723   25.0846  -10.1152 C   0  0  0  0  0  0
  -20.6092   26.4331  -10.5591 C   0  0  0  0  0  0
  -19.1438   26.1567  -10.5365 C   0  0  0  0  0  0
  -19.0666   25.0110   -9.5631 C   0  0  0  0  0  0
  -20.2477   24.2225   -9.6848 O   0  0  0  0  0  0
  -20.4706   20.9155  -12.4229 H   0  0  0  0  0  0
  -23.5546   23.0876   -7.8579 H   0  0  0  0  0  0
  1  2  1  0  0  0
  2  3  1  0  0  0
  2  4  1  0  0  0
  2 12  1  0  0  0
  4  5  1  0  0  0
  5  6  2  0  0  0
  5 11  1  0  0  0
  6  7  1  0  0  0
  7  8  2  0  0  0
  8  9  1  0  0  0
  8 10  1  0  0  0
 10 11  2  0  0  0
 12 13  2  0  0  0
 12 14  1  0  0  0
 14 15  1  0  0  0
 14 33  1  0  0  0
 15 16  2  0  0  0
 15 22  1  0  0  0
 16 17  1  0  0  0
 16 20  1  0  0  0
 17 18  1  0  0  0
 18 19  1  0  0  0
 19 20  1  0  0  0
 20 21  2  0  0  0
 21 22  1  0  0  0
 22 23  1  0  0  0
 23 24  1  0  0  0
 24 25  2  0  0  0
 24 26  1  0  0  0
 26 27  1  0  0  0
 26 34  1  0  0  0
 27 28  1  0  0  0
 28 29  1  0  0  0
 28 32  1  0  0  0
 29 30  1  0  0  0
 30 31  1  0  0  0
 31 32  1  0  0  0
M  END
>  <CHROM.0>
-62.85745144,69.74678458,-46.83517817,63.74601532,-30.08390920,-60.80186980
80.54168755,-163.39371459

>  <CHROM.1>
89.08245231,-106.80593182,-172.86377363,-6.26203744,-146.47406545,6.69102479
-42.09434690,177.31265463,-20.83949416,20.57415870,-13.66332097,0.93944233
-0.24775397,-2.37100666

>  <Name>
F5486-0344

>  <RI>
1.43466e+07

>  <Rbt.Current_Directory>
/home/adria/Escritorio/rDock_CMTR_LC/2pxcA_model/inputs_sah

>  <Rbt.Executable>
rbdock ($Id: //depot/dev/client3/rdock/2013.1/src/exe/rbdock.cxx#4 $)

>  <Rbt.Library>
libRbt.so (2013.1, Build901 2013/11/27)

>  <Rbt.Parameter_File>
/home/adria/Escritorio/rDock_2013.1_src/data/scripts/dock.prm

>  <Rbt.Receptor>
sah_rdock.prm

>  <SCORE>
-81.9103

>  <SCORE.INTER>
-8.43376

>  <SCORE.INTER.CONST>
1

>  <SCORE.INTER.POLAR>
0

>  <SCORE.INTER.REPUL>
0

>  <SCORE.INTER.ROT>
8

>  <SCORE.INTER.VDW>
-21.8338

>  <SCORE.INTER.norm>
-0.263555

>  <SCORE.INTRA>
-66.4201

>  <SCORE.INTRA.DIHEDRAL>
-38.2058

>  <SCORE.INTRA.DIHEDRAL.0>
48.6786

>  <SCORE.INTRA.POLAR>
0

>  <SCORE.INTRA.POLAR.0>
0

>  <SCORE.INTRA.REPUL>
0

>  <SCORE.INTRA.REPUL.0>
0

>  <SCORE.INTRA.VDW>
-47.3172

>  <SCORE.INTRA.VDW.0>
44.3934

>  <SCORE.INTRA.norm>
-2.07563

>  <SCORE.RESTR>
0

>  <SCORE.RESTR.CAVITY>
0

>  <SCORE.RESTR.norm>
0

>  <SCORE.SYSTEM>
-7.05639

>  <SCORE.SYSTEM.CONST>
0

>  <SCORE.SYSTEM.DIHEDRAL>
5.90136

>  <SCORE.SYSTEM.POLAR>
-3.60759

>  <SCORE.SYSTEM.VDW>
2.25872

>  <SCORE.SYSTEM.norm>
-0.220512

>  <SCORE.heavy>
32

>  <SCORE.norm>
-2.5597

$$$$
F5486-0344
  rDOCK(R)          3D
libRbt.so/2013.1/901 2013/11/27
 34 37  0  0  0  0  0  0  0  0999 V2000
  -18.3066   20.3919  -12.4384 C   0  0  0  0  0  0
  -19.2515   20.8078  -13.8716 C   0  0  0  0  0  0
  -19.7492   22.0177  -14.8992 C   0  0  0  0  0  0
  -18.1213   20.3002  -14.7204 O   0  0  0  0  0  0
  -18.1849   19.2288  -15.6786 C   0  0  0  0  0  0
  -19.1743   18.2483  -15.9942 C   0  0  0  0  0  0
  -19.0019   17.1313  -16.8309 C   0  0  0  0  0  0
  -17.8540   17.0442  -17.5611 C   0  0  0  0  0  0
  -17.5863   15.6650  -18.5441 Cl  0  0  0  0  0  0
  -16.9683   18.1169  -17.5101 C   0  0  0  0  0  0
  -17.1303   19.1876  -16.5822 C   0  0  0  0  0  0
  -21.0618   20.5616  -13.6072 C   0  0  0  0  0  0
  -21.5706   19.5024  -13.9701 O   0  0  0  0  0  0
  -22.2749   21.7327  -13.2981 N   0  0  0  0  0  0
  -22.4556   23.1419  -12.7205 C   0  0  0  0  0  0
  -21.4716   23.7992  -11.9442 C   0  0  0  0  0  0
  -20.0668   23.6029  -11.5059 C   0  0  0  0  0  0
  -19.7171   24.9595  -10.2600 S   0  0  0  0  0  0
  -21.4178   25.6530  -10.2178 C   0  0  0  0  0  0
  -22.1096   24.8620  -11.2600 C   0  0  0  0  0  0
  -23.3517   25.0562  -11.6341 N   0  0  0  0  0  0
  -23.6167   24.0516  -12.5092 N   0  0  0  0  0  0
  -25.0604   23.8522  -12.6097 C   0  0  0  0  0  0
  -25.3843   22.9740  -13.7279 C   0  0  0  0  0  0
  -25.4727   23.2292  -14.8611 O   0  0  0  0  0  0
  -25.5041   21.7115  -13.1578 N   0  0  0  0  0  0
  -25.5358   21.1388  -11.5983 C   0  0  0  0  0  0
  -24.4663   20.3513  -10.7971 C   0  0  0  0  0  0
  -23.0620   20.8290  -10.2923 C   0  0  0  0  0  0
  -22.9014   20.1806   -8.9589 C   0  0  0  0  0  0
  -24.3342   19.9429   -8.5631 C   0  0  0  0  0  0
  -25.0986   19.6779   -9.7365 O   0  0  0  0  0  0
  -23.1415   21.3781  -13.7204 H   0  0  0  0  0  0
  -25.4323   21.2146  -14.0586 H   0  0  0  0  0  0
  1  2  1  0  0  0
  2  3  1  0  0  0
  2  4  1  0  0  0
  2 12  1  0  0  0
  4  5  1  0  0  0
  5  6  2  0  0  0
  5 11  1  0  0  0
  6  7  1  0  0  0
  7  8  2  0  0  0
  8  9  1  0  0  0
  8 10  1  0  0  0
 10 11  2  0  0  0
 12 13  2  0  0  0
 12 14  1  0  0  0
 14 15  1  0  0  0
 14 33  1  0  0  0
 15 16  2  0  0  0
 15 22  1  0  0  0
 16 17  1  0  0  0
 16 20  1  0  0  0
 17 18  1  0  0  0
 18 19  1  0  0  0
 19 20  1  0  0  0
 20 21  2  0  0  0
 21 22  1  0  0  0
 22 23  1  0  0  0
 23 24  1  0  0  0
 24 25  2  0  0  0
 24 26  1  0  0  0
 26 27  1  0  0  0
 26 34  1  0  0  0
 27 28  1  0  0  0
 28 29  1  0  0  0
 28 32  1  0  0  0
 29 30  1  0  0  0
 30 31  1  0  0  0
 31 32  1  0  0  0
M  END
>  <CHROM.0>
-57.82473763,63.26444504,75.76728994,61.17518455,-32.03696736,61.23192887
-39.26441624,-52.32756288

>  <CHROM.1>
120.07519682,-95.48010199,-9.73466650,-14.95937670,-37.87771216,-81.15105388
-107.18946843,67.48654568,-21.29517232,21.11696219,-13.27480647,-0.94039180
0.32186965,0.59558800

>  <Name>
F5486-0344

>  <RI>
1.43466e+07

>  <Rbt.Current_Directory>
/home/adria/Escritorio/rDock_CMTR_LC/2pxcA_model/inputs_sah

>  <Rbt.Executable>
rbdock ($Id: //depot/dev/client3/rdock/2013.1/src/exe/rbdock.cxx#4 $)

>  <Rbt.Library>
libRbt.so (2013.1, Build901 2013/11/27)

>  <Rbt.Parameter_File>
/home/adria/Escritorio/rDock_2013.1_src/data/scripts/dock.prm

>  <Rbt.Receptor>
sah_rdock.prm

>  <SCORE>
-83.3454

>  <SCORE.INTER>
-9.31106

>  <SCORE.INTER.CONST>
1

>  <SCORE.INTER.POLAR>
0

>  <SCORE.INTER.REPUL>
0

>  <SCORE.INTER.ROT>
8

>  <SCORE.INTER.VDW>
-22.7111

>  <SCORE.INTER.norm>
-0.290971

>  <SCORE.INTRA>
-68.8651

>  <SCORE.INTRA.DIHEDRAL>
-36.6419

>  <SCORE.INTRA.DIHEDRAL.0>
48.6786

>  <SCORE.INTRA.POLAR>
0

>  <SCORE.INTRA.POLAR.0>
0

>  <SCORE.INTRA.REPUL>
0

>  <SCORE.INTRA.REPUL.0>
0

>  <SCORE.INTRA.VDW>
-50.5441

>  <SCORE.INTRA.VDW.0>
44.3934

>  <SCORE.INTRA.norm>
-2.15203

>  <SCORE.RESTR>
0

>  <SCORE.RESTR.CAVITY>
0

>  <SCORE.RESTR.norm>
0

>  <SCORE.SYSTEM>
-5.16933

>  <SCORE.SYSTEM.CONST>
0

>  <SCORE.SYSTEM.DIHEDRAL>
7.84834

>  <SCORE.SYSTEM.POLAR>
-3.325

>  <SCORE.SYSTEM.REPUL>
0.00580717

>  <SCORE.SYSTEM.VDW>
2.18246

>  <SCORE.SYSTEM.norm>
-0.161541

>  <SCORE.heavy>
32

>  <SCORE.norm>
-2.60455

$$$$
F5486-0344
  rDOCK(R)          3D
libRbt.so/2013.1/901 2013/11/27
 34 37  0  0  0  0  0  0  0  0999 V2000
  -22.9563   20.4251   -9.5398 C   0  0  0  0  0  0
  -22.7633   19.8079  -11.1835 C   0  0  0  0  0  0
  -23.0196   20.0810  -12.8044 C   0  0  0  0  0  0
  -21.3309   20.2580  -11.1463 O   0  0  0  0  0  0
  -20.2976   19.9022  -12.0820 C   0  0  0  0  0  0
  -19.1316   20.5727  -12.5624 C   0  0  0  0  0  0
  -18.3225   20.1675  -13.6388 C   0  0  0  0  0  0
  -18.5409   18.9358  -14.1811 C   0  0  0  0  0  0
  -17.6125   18.4368  -15.5336 Cl  0  0  0  0  0  0
  -19.4844   18.1148  -13.5701 C   0  0  0  0  0  0
  -20.3492   18.5921  -12.5415 C   0  0  0  0  0  0
  -23.7780   18.2951  -11.4824 C   0  0  0  0  0  0
  -23.6271   17.3287  -10.7368 O   0  0  0  0  0  0
  -24.6347   17.8334  -12.8936 N   0  0  0  0  0  0
  -25.2938   18.4342  -14.1413 C   0  0  0  0  0  0
  -25.3005   17.7959  -15.4044 C   0  0  0  0  0  0
  -24.9110   16.4988  -16.0125 C   0  0  0  0  0  0
  -25.1041   16.7147  -17.8649 S   0  0  0  0  0  0
  -25.5338   18.5006  -17.8270 C   0  0  0  0  0  0
  -25.6147   18.7773  -16.3753 C   0  0  0  0  0  0
  -25.9654   19.9315  -15.8603 N   0  0  0  0  0  0
  -25.7907   19.7868  -14.5210 N   0  0  0  0  0  0
  -25.6590   21.1003  -13.8953 C   0  0  0  0  0  0
  -26.2167   21.0893  -12.5480 C   0  0  0  0  0  0
  -26.9694   20.3395  -12.0703 O   0  0  0  0  0  0
  -25.5951   22.1530  -11.9035 N   0  0  0  0  0  0
  -24.6068   23.3940  -12.3976 C   0  0  0  0  0  0
  -24.0565   24.6121  -11.6106 C   0  0  0  0  0  0
  -23.0532   24.6376  -10.4074 C   0  0  0  0  0  0
  -22.2146   25.8483  -10.6428 C   0  0  0  0  0  0
  -22.3543   26.0287  -12.1308 C   0  0  0  0  0  0
  -23.6547   25.6006  -12.5269 O   0  0  0  0  0  0
  -24.6165   16.8069  -12.9270 H   0  0  0  0  0  0
  -25.8530   21.8301  -10.9585 H   0  0  0  0  0  0
  1  2  1  0  0  0
  2  3  1  0  0  0
  2  4  1  0  0  0
  2 12  1  0  0  0
  4  5  1  0  0  0
  5  6  2  0  0  0
  5 11  1  0  0  0
  6  7  1  0  0  0
  7  8  2  0  0  0
  8  9  1  0  0  0
  8 10  1  0  0  0
 10 11  2  0  0  0
 12 13  2  0  0  0
 12 14  1  0  0  0
 14 15  1  0  0  0
 14 33  1  0  0  0
 15 16  2  0  0  0
 15 22  1  0  0  0
 16 17  1  0  0  0
 16 20  1  0  0  0
 17 18  1  0  0  0
 18 19  1  0  0  0
 19 20  1  0  0  0
 20 21  2  0  0  0
 21 22  1  0  0  0
 22 23  1  0  0  0
 23 24  1  0  0  0
 24 25  2  0  0  0
 24 26  1  0  0  0
 26 27  1  0  0  0
 26 34  1  0  0  0
 27 28  1  0  0  0
 28 29  1  0  0  0
 28 32  1  0  0  0
 29 30  1  0  0  0
 30 31  1  0  0  0
 31 32  1  0  0  0
M  END
>  <CHROM.0>
-62.66742303,-168.59456002,-8.80809549,-149.71594999,-29.85404106,176.77801569
-156.42946528,-165.57767882

>  <CHROM.1>
167.33596671,-55.86303457,149.33390746,145.10779663,-58.98410190,-19.23620060
174.11251191,65.85632879,-23.10138170,20.13677297,-13.42619401,-1.45514672
0.13066135,-2.50712954

>  <Name>
F5486-0344

>  <RI>
1.43466e+07

>  <Rbt.Current_Directory>
/home/adria/Escritorio/rDock_CMTR_LC/2pxcA_model/inputs_sah

>  <Rbt.Executable>
rbdock ($Id: //depot/dev/client3/rdock/2013.1/src/exe/rbdock.cxx#4 $)

>  <Rbt.Library>
libRbt.so (2013.1, Build901 2013/11/27)

>  <Rbt.Parameter_File>
/home/adria/Escritorio/rDock_2013.1_src/data/scripts/dock.prm

>  <Rbt.Receptor>
sah_rdock.prm

>  <SCORE>
-68.3087

>  <SCORE.INTER>
-5.76347

>  <SCORE.INTER.CONST>
1

>  <SCORE.INTER.POLAR>
0

>  <SCORE.INTER.REPUL>
0.0954434

>  <SCORE.INTER.ROT>
8

>  <SCORE.INTER.VDW>
-19.6407

>  <SCORE.INTER.norm>
-0.180108

>  <SCORE.INTRA>
-59.6013

>  <SCORE.INTRA.DIHEDRAL>
-30.4477

>  <SCORE.INTRA.DIHEDRAL.0>
48.6786

>  <SCORE.INTRA.POLAR>
0

>  <SCORE.INTRA.POLAR.0>
0

>  <SCORE.INTRA.REPUL>
0

>  <SCORE.INTRA.REPUL.0>
0

>  <SCORE.INTRA.VDW>
-44.3775

>  <SCORE.INTRA.VDW.0>
44.3934

>  <SCORE.INTRA.norm>
-1.86254

>  <SCORE.RESTR>
0

>  <SCORE.RESTR.CAVITY>
0

>  <SCORE.RESTR.norm>
0

>  <SCORE.SYSTEM>
-2.94384

>  <SCORE.SYSTEM.CONST>
0

>  <SCORE.SYSTEM.DIHEDRAL>
12.8796

>  <SCORE.SYSTEM.POLAR>
-4.36655

>  <SCORE.SYSTEM.VDW>
5.46261

>  <SCORE.SYSTEM.norm>
-0.091995

>  <SCORE.heavy>
32

>  <SCORE.norm>
-2.13465

$$$$
F5486-0344
  rDOCK(R)          3D
libRbt.so/2013.1/901 2013/11/27
 34 37  0  0  0  0  0  0  0  0999 V2000
  -18.2423   20.9168  -15.8952 C   0  0  0  0  0  0
  -18.1485   19.6537  -14.6640 C   0  0  0  0  0  0
  -18.6164   18.1225  -14.2123 C   0  0  0  0  0  0
  -16.7959   19.2812  -15.2000 O   0  0  0  0  0  0
  -16.5263   18.3982  -16.3035 C   0  0  0  0  0  0
  -17.3583   17.6526  -17.1933 C   0  0  0  0  0  0
  -16.9323   16.6680  -18.1024 C   0  0  0  0  0  0
  -15.5928   16.5121  -18.3028 C   0  0  0  0  0  0
  -15.0391   15.2795  -19.3584 Cl  0  0  0  0  0  0
  -14.7329   17.4059  -17.6709 C   0  0  0  0  0  0
  -15.1925   18.3295  -16.6862 C   0  0  0  0  0  0
  -18.9732   20.1537  -13.0900 C   0  0  0  0  0  0
  -18.2808   20.6117  -12.1827 O   0  0  0  0  0  0
  -20.5210   19.7151  -12.4977 N   0  0  0  0  0  0
  -21.8968   19.2433  -12.9843 C   0  0  0  0  0  0
  -22.2409   19.1202  -14.3515 C   0  0  0  0  0  0
  -21.5992   19.2142  -15.6870 C   0  0  0  0  0  0
  -22.9911   19.1217  -16.9397 S   0  0  0  0  0  0
  -24.3698   19.1153  -15.7255 C   0  0  0  0  0  0
  -23.6534   19.0651  -14.4313 C   0  0  0  0  0  0
  -24.2420   18.9779  -13.2624 N   0  0  0  0  0  0
  -23.2374   19.0817  -12.3540 N   0  0  0  0  0  0
  -23.7798   19.4980  -11.0630 C   0  0  0  0  0  0
  -22.7133   19.9418  -10.1731 C   0  0  0  0  0  0
  -22.1088   19.3295   -9.3879 O   0  0  0  0  0  0
  -22.5089   21.2752  -10.5101 N   0  0  0  0  0  0
  -23.3025   22.3626  -11.4843 C   0  0  0  0  0  0
  -23.3843   23.9094  -11.4019 C   0  0  0  0  0  0
  -22.2230   24.9611  -11.4215 C   0  0  0  0  0  0
  -22.7661   26.1061  -12.2078 C   0  0  0  0  0  0
  -23.8256   25.4294  -13.0358 C   0  0  0  0  0  0
  -24.3862   24.3583  -12.2810 O   0  0  0  0  0  0
  -20.4500   19.6957  -11.4731 H   0  0  0  0  0  0
  -21.5923   21.3323  -10.0409 H   0  0  0  0  0  0
  1  2  1  0  0  0
  2  3  1  0  0  0
  2  4  1  0  0  0
  2 12  1  0  0  0
  4  5  1  0  0  0
  5  6  2  0  0  0
  5 11  1  0  0  0
  6  7  1  0  0  0
  7  8  2  0  0  0
  8  9  1  0  0  0
  8 10  1  0  0  0
 10 11  2  0  0  0
 12 13  2  0  0  0
 12 14  1  0  0  0
 14 15  1  0  0  0
 14 33  1  0  0  0
 15 16  2  0  0  0
 15 22  1  0  0  0
 16 17  1  0  0  0
 16 20  1  0  0  0
 17 18  1  0  0  0
 18 19  1  0  0  0
 19 20  1  0  0  0
 20 21  2  0  0  0
 21 22  1  0  0  0
 22 23  1  0  0  0
 23 24  1  0  0  0
 24 25  2  0  0  0
 24 26  1  0  0  0
 26 27  1  0  0  0
 26 34  1  0  0  0
 27 28  1  0  0  0
 28 29  1  0  0  0
 28 32  1  0  0  0
 29 30  1  0  0  0
 30 31  1  0  0  0
 31 32  1  0  0  0
M  END
>  <CHROM.0>
-63.07812056,65.07679340,-166.02766811,61.28798192,-30.69564473,-65.55570386
-154.69503890,-170.96280110

>  <CHROM.1>
-84.87294971,-96.88477103,0.63099152,-4.42330478,-12.16797680,-92.33791705
152.46604635,57.95307816,-20.39544950,19.78189820,-14.34025432,-0.82963042
0.12955876,0.71173843

>  <Name>
F5486-0344

>  <RI>
1.43466e+07

>  <Rbt.Current_Directory>
/home/adria/Escritorio/rDock_CMTR_LC/2pxcA_model/inputs_sah

>  <Rbt.Executable>
rbdock ($Id: //depot/dev/client3/rdock/2013.1/src/exe/rbdock.cxx#4 $)

>  <Rbt.Library>
libRbt.so (2013.1, Build901 2013/11/27)

>  <Rbt.Parameter_File>
/home/adria/Escritorio/rDock_2013.1_src/data/scripts/dock.prm

>  <Rbt.Receptor>
sah_rdock.prm

>  <SCORE>
-91.745

>  <SCORE.INTER>
-17.1392

>  <SCORE.INTER.CONST>
1

>  <SCORE.INTER.POLAR>
-1.22107

>  <SCORE.INTER.REPUL>
0

>  <SCORE.INTER.ROT>
8

>  <SCORE.INTER.VDW>
-26.3875

>  <SCORE.INTER.norm>
-0.535599

>  <SCORE.INTRA>
-67.6027

>  <SCORE.INTRA.DIHEDRAL>
-40.0918

>  <SCORE.INTRA.DIHEDRAL.0>
48.6786

>  <SCORE.INTRA.POLAR>
0

>  <SCORE.INTRA.POLAR.0>
0

>  <SCORE.INTRA.REPUL>
0

>  <SCORE.INTRA.REPUL.0>
0

>  <SCORE.INTRA.VDW>
-47.5568

>  <SCORE.INTRA.VDW.0>
44.3934

>  <SCORE.INTRA.norm>
-2.11258

>  <SCORE.RESTR>
0

>  <SCORE.RESTR.CAVITY>
0

>  <SCORE.RESTR.norm>
0

>  <SCORE.SYSTEM>
-7.00312

>  <SCORE.SYSTEM.CONST>
0

>  <SCORE.SYSTEM.DIHEDRAL>
5.66619

>  <SCORE.SYSTEM.POLAR>
-3.67674

>  <SCORE.SYSTEM.VDW>
2.66469

>  <SCORE.SYSTEM.norm>
-0.218847

>  <SCORE.heavy>
32

>  <SCORE.norm>
-2.86703

$$$$
