F2256-0251
  rDOCK(R)          3D
libRbt.so/2013.1/901 2013/11/27
 24 26  0  0  0  0  0  0  0  0999 V2000
  -22.6503   25.4140  -10.9058 O   0  0  0  0  0  0
  -22.2068   24.5025  -11.5754 C   0  0  0  0  0  0
  -22.1288   24.3566  -13.0617 C   0  0  0  0  0  0
  -21.2087   23.1428  -13.1651 C   0  0  0  0  0  0
  -20.8573   22.5787  -12.2984 C   0  0  0  0  0  0
  -21.5998   23.3687  -11.1086 N   0  0  0  0  0  0
  -19.5450   21.0758  -12.5069 C   0  0  0  0  0  0
  -18.8738   20.2511  -13.3944 C   0  0  0  0  0  0
  -19.2319   20.7914  -14.4959 C   0  0  0  0  0  0
  -19.2677   20.1748  -15.7651 N   0  0  0  0  0  0
  -17.7766   19.8452  -16.4970 S   0  0  0  0  0  0
  -17.9824   20.2425  -17.8782 O   0  0  0  0  0  0
  -16.7628   20.5182  -15.7128 O   0  0  0  0  0  0
  -17.4152   18.0624  -16.5239 C   0  0  0  0  0  0
  -18.4704   17.1051  -17.0988 C   0  0  0  0  0  0
  -18.0430   15.6399  -17.2075 C   0  0  0  0  0  0
  -18.4220   14.6086  -15.5145 C   0  0  0  0  0  0
  -17.0178   13.1422  -15.2816 C   0  0  0  0  0  0
  -15.6754   12.8195  -16.7281 C   0  0  0  0  0  0
  -15.4718   13.7033  -18.5305 C   0  0  0  0  0  0
  -16.7736   15.2772  -18.7181 C   0  0  0  0  0  0
  -20.0434   21.9554  -14.2564 C   0  0  0  0  0  0
  -21.4379   23.2227  -10.1245 H   0  0  0  0  0  0
  -19.7973   20.7589  -16.4146 H   0  0  0  0  0  0
  1  2  2  0  0  0
  2  3  1  0  0  0
  2  6  1  0  0  0
  3  4  1  0  0  0
  4  5  2  0  0  0
  4 22  1  0  0  0
  5  6  1  0  0  0
  5  7  1  0  0  0
  6 23  1  0  0  0
  7  8  2  0  0  0
  8  9  1  0  0  0
  9 10  1  0  0  0
  9 22  2  0  0  0
 10 11  1  0  0  0
 10 24  1  0  0  0
 11 12  2  0  0  0
 11 13  2  0  0  0
 11 14  1  0  0  0
 14 15  1  0  0  0
 15 16  1  0  0  0
 16 17  2  0  0  0
 16 21  1  0  0  0
 17 18  1  0  0  0
 18 19  2  0  0  0
 19 20  1  0  0  0
 20 21  2  0  0  0
M  END
>  <CHROM.0>
-178.24927288,65.94924774,-127.93105160,-64.38790157,-30.39340229,-177.83103883
-156.78228398,-160.66356972

>  <CHROM.1>
-71.57206789,-136.96598600,52.10619235,174.52106788,87.99433706,-18.90804522
19.57979655,-15.01680767,2.56614178,1.04437509,-0.40689479

>  <Name>
F2256-0251

>  <RI>
2.8699e+07

>  <Rbt.Current_Directory>
/home/adria/Escritorio/rDock_CMTR_LC/2pxcA_model/inputs_sah

>  <Rbt.Executable>
rbdock ($Id: //depot/dev/client3/rdock/2013.1/src/exe/rbdock.cxx#4 $)

>  <Rbt.Library>
libRbt.so (2013.1, Build901 2013/11/27)

>  <Rbt.Parameter_File>
/home/adria/Escritorio/rDock_2013.1_src/data/scripts/dock.prm

>  <Rbt.Receptor>
sah_rdock.prm

>  <SCORE>
-282.037

>  <SCORE.INTER>
-17.9915

>  <SCORE.INTER.CONST>
1

>  <SCORE.INTER.POLAR>
-2.48052

>  <SCORE.INTER.REPUL>
0

>  <SCORE.INTER.ROT>
5

>  <SCORE.INTER.VDW>
-19.9577

>  <SCORE.INTER.norm>
-0.817794

>  <SCORE.INTRA>
-257.757

>  <SCORE.INTRA.DIHEDRAL>
0.525203

>  <SCORE.INTRA.DIHEDRAL.0>
3.37351

>  <SCORE.INTRA.POLAR>
0

>  <SCORE.INTRA.POLAR.0>
0

>  <SCORE.INTRA.REPUL>
0

>  <SCORE.INTRA.REPUL.0>
0

>  <SCORE.INTRA.VDW>
-258.02

>  <SCORE.INTRA.VDW.0>
256.497

>  <SCORE.INTRA.norm>
-11.7162

>  <SCORE.RESTR>
0

>  <SCORE.RESTR.CAVITY>
0

>  <SCORE.RESTR.norm>
0

>  <SCORE.SYSTEM>
-6.28886

>  <SCORE.SYSTEM.CONST>
0

>  <SCORE.SYSTEM.DIHEDRAL>
8.96805

>  <SCORE.SYSTEM.POLAR>
-4.25929

>  <SCORE.SYSTEM.VDW>
3.7087

>  <SCORE.SYSTEM.norm>
-0.285857

>  <SCORE.heavy>
22

>  <SCORE.norm>
-12.8199

$$$$
F2256-0251
  rDOCK(R)          3D
libRbt.so/2013.1/901 2013/11/27
 24 26  0  0  0  0  0  0  0  0999 V2000
  -22.8052   18.9813   -9.9437 O   0  0  0  0  0  0
  -21.9007   19.2154  -10.7202 C   0  0  0  0  0  0
  -20.9889   18.2735  -11.4397 C   0  0  0  0  0  0
  -20.3395   19.2335  -12.4333 C   0  0  0  0  0  0
  -20.5214   20.3104  -12.4360 C   0  0  0  0  0  0
  -21.5202   20.4462  -11.1808 N   0  0  0  0  0  0
  -19.7331   21.4878  -13.8559 C   0  0  0  0  0  0
  -18.8521   21.5708  -14.9214 C   0  0  0  0  0  0
  -18.5187   20.3405  -15.0154 C   0  0  0  0  0  0
  -17.3341   19.8291  -15.5875 N   0  0  0  0  0  0
  -17.4854   19.0322  -17.0741 S   0  0  0  0  0  0
  -17.7123   20.1135  -18.0161 O   0  0  0  0  0  0
  -16.3127   18.1974  -17.2274 O   0  0  0  0  0  0
  -18.9695   17.9817  -17.1309 C   0  0  0  0  0  0
  -18.9841   16.6815  -16.3125 C   0  0  0  0  0  0
  -18.1929   15.5162  -16.9104 C   0  0  0  0  0  0
  -17.7219   14.1257  -15.5255 C   0  0  0  0  0  0
  -15.9426   13.2495  -16.0183 C   0  0  0  0  0  0
  -15.0634   13.7047  -17.7555 C   0  0  0  0  0  0
  -15.6823   14.9171  -19.2449 C   0  0  0  0  0  0
  -17.3872   15.9204  -18.7027 C   0  0  0  0  0  0
  -19.2445   19.5385  -14.0664 C   0  0  0  0  0  0
  -22.0160   21.2844  -10.9209 H   0  0  0  0  0  0
  -16.8966   19.1723  -14.9390 H   0  0  0  0  0  0
  1  2  2  0  0  0
  2  3  1  0  0  0
  2  6  1  0  0  0
  3  4  1  0  0  0
  4  5  2  0  0  0
  4 22  1  0  0  0
  5  6  1  0  0  0
  5  7  1  0  0  0
  6 23  1  0  0  0
  7  8  2  0  0  0
  8  9  1  0  0  0
  9 10  1  0  0  0
  9 22  2  0  0  0
 10 11  1  0  0  0
 10 24  1  0  0  0
 11 12  2  0  0  0
 11 13  2  0  0  0
 11 14  1  0  0  0
 14 15  1  0  0  0
 15 16  1  0  0  0
 16 17  2  0  0  0
 16 21  1  0  0  0
 17 18  1  0  0  0
 18 19  2  0  0  0
 19 20  1  0  0  0
 20 21  2  0  0  0
M  END
>  <CHROM.0>
-178.11786735,-73.73857869,-168.54742632,-62.09616680,-31.95936202,-61.25813420
-37.22067914,-167.56157999

>  <CHROM.1>
-108.28679261,73.72158852,-72.34358728,-77.08913324,159.70143074,-18.62545593
18.21233075,-15.18927567,2.81477154,0.96999219,-0.21278640

>  <Name>
F2256-0251

>  <RI>
2.8699e+07

>  <Rbt.Current_Directory>
/home/adria/Escritorio/rDock_CMTR_LC/2pxcA_model/inputs_sah

>  <Rbt.Executable>
rbdock ($Id: //depot/dev/client3/rdock/2013.1/src/exe/rbdock.cxx#4 $)

>  <Rbt.Library>
libRbt.so (2013.1, Build901 2013/11/27)

>  <Rbt.Parameter_File>
/home/adria/Escritorio/rDock_2013.1_src/data/scripts/dock.prm

>  <Rbt.Receptor>
sah_rdock.prm

>  <SCORE>
-279.227

>  <SCORE.INTER>
-13.4692

>  <SCORE.INTER.CONST>
1

>  <SCORE.INTER.POLAR>
-1.00653

>  <SCORE.INTER.REPUL>
0

>  <SCORE.INTER.ROT>
5

>  <SCORE.INTER.VDW>
-20.447

>  <SCORE.INTER.norm>
-0.612238

>  <SCORE.INTRA>
-258.884

>  <SCORE.INTRA.DIHEDRAL>
-0.67478

>  <SCORE.INTRA.DIHEDRAL.0>
3.37351

>  <SCORE.INTRA.POLAR>
0

>  <SCORE.INTRA.POLAR.0>
0

>  <SCORE.INTRA.REPUL>
0

>  <SCORE.INTRA.REPUL.0>
0

>  <SCORE.INTRA.VDW>
-258.546

>  <SCORE.INTRA.VDW.0>
256.497

>  <SCORE.INTRA.norm>
-11.7674

>  <SCORE.RESTR>
0

>  <SCORE.RESTR.CAVITY>
0

>  <SCORE.RESTR.norm>
0

>  <SCORE.SYSTEM>
-6.87377

>  <SCORE.SYSTEM.CONST>
0

>  <SCORE.SYSTEM.DIHEDRAL>
5.83841

>  <SCORE.SYSTEM.POLAR>
-3.89407

>  <SCORE.SYSTEM.REPUL>
0.0398277

>  <SCORE.SYSTEM.VDW>
3.24773

>  <SCORE.SYSTEM.norm>
-0.312444

>  <SCORE.heavy>
22

>  <SCORE.norm>
-12.6921

$$$$
F2256-0251
  rDOCK(R)          3D
libRbt.so/2013.1/901 2013/11/27
 24 26  0  0  0  0  0  0  0  0999 V2000
  -20.9969   17.4793  -14.1640 O   0  0  0  0  0  0
  -21.0638   18.5527  -13.5987 C   0  0  0  0  0  0
  -20.5967   18.9464  -12.2338 C   0  0  0  0  0  0
  -20.7337   20.4638  -12.3296 C   0  0  0  0  0  0
  -21.1626   20.9757  -13.1938 C   0  0  0  0  0  0
  -21.5554   19.7185  -14.1192 N   0  0  0  0  0  0
  -21.1881   22.9788  -13.3002 C   0  0  0  0  0  0
  -20.9697   24.1683  -12.6251 C   0  0  0  0  0  0
  -20.4804   23.7068  -11.5383 C   0  0  0  0  0  0
  -20.4721   24.3451  -10.2794 N   0  0  0  0  0  0
  -21.9428   24.9865   -9.7379 S   0  0  0  0  0  0
  -21.6377   25.4458   -8.3948 O   0  0  0  0  0  0
  -22.3762   25.9468  -10.7306 O   0  0  0  0  0  0
  -23.2184   23.7011   -9.5636 C   0  0  0  0  0  0
  -23.5121   22.7866  -10.7627 C   0  0  0  0  0  0
  -23.4902   21.2851  -10.4688 C   0  0  0  0  0  0
  -23.9997   20.1859  -12.0829 C   0  0  0  0  0  0
  -24.9416   18.4777  -11.4736 C   0  0  0  0  0  0
  -25.0612   18.0560   -9.5226 C   0  0  0  0  0  0
  -24.3208   19.0522   -7.9318 C   0  0  0  0  0  0
  -23.5068   20.8433   -8.5119 C   0  0  0  0  0  0
  -20.3493   22.2753  -11.6018 C   0  0  0  0  0  0
  -21.8792   19.7771  -15.0719 H   0  0  0  0  0  0
  -19.7967   25.1113  -10.2885 H   0  0  0  0  0  0
  1  2  2  0  0  0
  2  3  1  0  0  0
  2  6  1  0  0  0
  3  4  1  0  0  0
  4  5  2  0  0  0
  4 22  1  0  0  0
  5  6  1  0  0  0
  5  7  1  0  0  0
  6 23  1  0  0  0
  7  8  2  0  0  0
  8  9  1  0  0  0
  9 10  1  0  0  0
  9 22  2  0  0  0
 10 11  1  0  0  0
 10 24  1  0  0  0
 11 12  2  0  0  0
 11 13  2  0  0  0
 11 14  1  0  0  0
 14 15  1  0  0  0
 15 16  1  0  0  0
 16 17  2  0  0  0
 16 21  1  0  0  0
 17 18  1  0  0  0
 18 19  2  0  0  0
 19 20  1  0  0  0
 20 21  2  0  0  0
M  END
>  <CHROM.0>
-172.22853216,-166.77012864,-47.08466586,63.78368593,168.93209817,58.28379472
-156.29085323,-163.79128972

>  <CHROM.1>
49.26416167,174.77048424,-53.23068601,128.68269876,176.46808422,-22.13484496
21.82804110,-11.17771856,-1.69985243,0.84732633,0.47262533

>  <Name>
F2256-0251

>  <RI>
2.8699e+07

>  <Rbt.Current_Directory>
/home/adria/Escritorio/rDock_CMTR_LC/2pxcA_model/inputs_sah

>  <Rbt.Executable>
rbdock ($Id: //depot/dev/client3/rdock/2013.1/src/exe/rbdock.cxx#4 $)

>  <Rbt.Library>
libRbt.so (2013.1, Build901 2013/11/27)

>  <Rbt.Parameter_File>
/home/adria/Escritorio/rDock_2013.1_src/data/scripts/dock.prm

>  <Rbt.Receptor>
sah_rdock.prm

>  <SCORE>
-269.372

>  <SCORE.INTER>
-9.8325

>  <SCORE.INTER.CONST>
1

>  <SCORE.INTER.POLAR>
-0.87178

>  <SCORE.INTER.REPUL>
0.00275407

>  <SCORE.INTER.ROT>
5

>  <SCORE.INTER.VDW>
-17.2822

>  <SCORE.INTER.norm>
-0.446932

>  <SCORE.INTRA>
-258.41

>  <SCORE.INTRA.DIHEDRAL>
3.37658

>  <SCORE.INTRA.DIHEDRAL.0>
3.37351

>  <SCORE.INTRA.POLAR>
0

>  <SCORE.INTRA.POLAR.0>
0

>  <SCORE.INTRA.REPUL>
0

>  <SCORE.INTRA.REPUL.0>
0

>  <SCORE.INTRA.VDW>
-260.098

>  <SCORE.INTRA.VDW.0>
256.497

>  <SCORE.INTRA.norm>
-11.7459

>  <SCORE.RESTR>
0

>  <SCORE.RESTR.CAVITY>
0

>  <SCORE.RESTR.norm>
0

>  <SCORE.SYSTEM>
-1.1292

>  <SCORE.SYSTEM.CONST>
0

>  <SCORE.SYSTEM.DIHEDRAL>
3.77709

>  <SCORE.SYSTEM.POLAR>
-3.64232

>  <SCORE.SYSTEM.VDW>
9.36613

>  <SCORE.SYSTEM.norm>
-0.0513273

>  <SCORE.heavy>
22

>  <SCORE.norm>
-12.2442

$$$$
F2256-0251
  rDOCK(R)          3D
libRbt.so/2013.1/901 2013/11/27
 24 26  0  0  0  0  0  0  0  0999 V2000
  -20.7018   20.2882  -11.7020 O   0  0  0  0  0  0
  -19.9178   19.7611  -12.4659 C   0  0  0  0  0  0
  -20.0268   18.4668  -13.2070 C   0  0  0  0  0  0
  -18.8491   18.6070  -14.1682 C   0  0  0  0  0  0
  -18.1461   19.4424  -14.1406 C   0  0  0  0  0  0
  -18.7217   20.2738  -12.8880 N   0  0  0  0  0  0
  -16.7017   19.6233  -15.5208 C   0  0  0  0  0  0
  -16.0406   19.0205  -16.5780 C   0  0  0  0  0  0
  -16.7599   17.9717  -16.7058 C   0  0  0  0  0  0
  -16.3681   16.7459  -17.2855 N   0  0  0  0  0  0
  -14.8020   16.6687  -17.9249 S   0  0  0  0  0  0
  -14.8084   17.6871  -18.9597 O   0  0  0  0  0  0
  -13.8844   16.7987  -16.8128 O   0  0  0  0  0  0
  -14.4911   15.0852  -18.7648 C   0  0  0  0  0  0
  -15.6927   14.2217  -19.1781 C   0  0  0  0  0  0
  -16.2992   13.3600  -18.0686 C   0  0  0  0  0  0
  -17.8894   12.2974  -18.7130 C   0  0  0  0  0  0
  -19.2108   12.0485  -17.1740 C   0  0  0  0  0  0
  -18.7194   12.6697  -15.3380 C   0  0  0  0  0  0
  -17.0121   13.5087  -14.6654 C   0  0  0  0  0  0
  -15.7362   13.9050  -16.2217 C   0  0  0  0  0  0
  -17.8655   17.9927  -15.7850 C   0  0  0  0  0  0
  -18.4106   21.1904  -12.6068 H   0  0  0  0  0  0
  -17.0120   16.5029  -18.0403 H   0  0  0  0  0  0
  1  2  2  0  0  0
  2  3  1  0  0  0
  2  6  1  0  0  0
  3  4  1  0  0  0
  4  5  2  0  0  0
  4 22  1  0  0  0
  5  6  1  0  0  0
  5  7  1  0  0  0
  6 23  1  0  0  0
  7  8  2  0  0  0
  8  9  1  0  0  0
  9 10  1  0  0  0
  9 22  2  0  0  0
 10 11  1  0  0  0
 10 24  1  0  0  0
 11 12  2  0  0  0
 11 13  2  0  0  0
 11 14  1  0  0  0
 14 15  1  0  0  0
 15 16  1  0  0  0
 16 17  2  0  0  0
 16 21  1  0  0  0
 17 18  1  0  0  0
 18 19  2  0  0  0
 19 20  1  0  0  0
 20 21  2  0  0  0
M  END
>  <CHROM.0>
-60.75573529,-73.31455979,73.05475910,68.41295066,-29.58004117,177.02462923
-156.79453570,-162.35991563

>  <CHROM.1>
-2.20079085,-60.82966808,17.97476027,-81.32661496,178.88447682,-17.03331085
16.70241366,-16.13611384,2.15729674,0.70380441,0.34211466

>  <Name>
F2256-0251

>  <RI>
2.8699e+07

>  <Rbt.Current_Directory>
/home/adria/Escritorio/rDock_CMTR_LC/2pxcA_model/inputs_sah

>  <Rbt.Executable>
rbdock ($Id: //depot/dev/client3/rdock/2013.1/src/exe/rbdock.cxx#4 $)

>  <Rbt.Library>
libRbt.so (2013.1, Build901 2013/11/27)

>  <Rbt.Parameter_File>
/home/adria/Escritorio/rDock_2013.1_src/data/scripts/dock.prm

>  <Rbt.Receptor>
sah_rdock.prm

>  <SCORE>
-278.472

>  <SCORE.INTER>
-13.1572

>  <SCORE.INTER.CONST>
1

>  <SCORE.INTER.POLAR>
-0.916515

>  <SCORE.INTER.REPUL>
0

>  <SCORE.INTER.ROT>
5

>  <SCORE.INTER.VDW>
-20.441

>  <SCORE.INTER.norm>
-0.598054

>  <SCORE.INTRA>
-257.377

>  <SCORE.INTRA.DIHEDRAL>
2.13641

>  <SCORE.INTRA.DIHEDRAL.0>
3.37351

>  <SCORE.INTRA.POLAR>
0

>  <SCORE.INTRA.POLAR.0>
0

>  <SCORE.INTRA.REPUL>
0

>  <SCORE.INTRA.REPUL.0>
0

>  <SCORE.INTRA.VDW>
-258.445

>  <SCORE.INTRA.VDW.0>
256.497

>  <SCORE.INTRA.norm>
-11.699

>  <SCORE.RESTR>
0

>  <SCORE.RESTR.CAVITY>
0

>  <SCORE.RESTR.norm>
0

>  <SCORE.SYSTEM>
-7.93817

>  <SCORE.SYSTEM.CONST>
0

>  <SCORE.SYSTEM.DIHEDRAL>
6.90557

>  <SCORE.SYSTEM.POLAR>
-4.15915

>  <SCORE.SYSTEM.REPUL>
0.0390924

>  <SCORE.SYSTEM.VDW>
2.55471

>  <SCORE.SYSTEM.norm>
-0.360826

>  <SCORE.heavy>
22

>  <SCORE.norm>
-12.6578

$$$$
F2256-0251
  rDOCK(R)          3D
libRbt.so/2013.1/901 2013/11/27
 24 26  0  0  0  0  0  0  0  0999 V2000
  -13.0945   19.8629  -17.5850 O   0  0  0  0  0  0
  -14.2604   19.6882  -17.2915 C   0  0  0  0  0  0
  -15.1112   18.4669  -17.4359 C   0  0  0  0  0  0
  -16.3230   18.8832  -16.6059 C   0  0  0  0  0  0
  -16.4373   19.8754  -16.1640 C   0  0  0  0  0  0
  -15.0918   20.5895  -16.6847 N   0  0  0  0  0  0
  -17.9965   20.3043  -14.9770 C   0  0  0  0  0  0
  -19.2183   19.8758  -14.4850 C   0  0  0  0  0  0
  -19.2369   18.6929  -14.9687 C   0  0  0  0  0  0
  -20.3790   17.9022  -15.2193 N   0  0  0  0  0  0
  -21.4435   17.6648  -13.9239 S   0  0  0  0  0  0
  -22.5610   16.9623  -14.5285 O   0  0  0  0  0  0
  -20.6900   17.0178  -12.8707 O   0  0  0  0  0  0
  -22.1057   19.2382  -13.2950 C   0  0  0  0  0  0
  -21.3038   20.0025  -12.2304 C   0  0  0  0  0  0
  -21.8849   21.3542  -11.8103 C   0  0  0  0  0  0
  -23.8576   21.2404  -11.3997 C   0  0  0  0  0  0
  -24.7544   23.0156  -11.8695 C   0  0  0  0  0  0
  -23.6337   24.5676  -12.4474 C   0  0  0  0  0  0
  -21.6293   24.7314  -12.6110 C   0  0  0  0  0  0
  -20.7246   22.9185  -12.2916 C   0  0  0  0  0  0
  -18.0157   18.4079  -15.6744 C   0  0  0  0  0  0
  -14.7643   21.4963  -16.3908 H   0  0  0  0  0  0
  -20.0907   16.9773  -15.5431 H   0  0  0  0  0  0
  1  2  2  0  0  0
  2  3  1  0  0  0
  2  6  1  0  0  0
  3  4  1  0  0  0
  4  5  2  0  0  0
  4 22  1  0  0  0
  5  6  1  0  0  0
  5  7  1  0  0  0
  6 23  1  0  0  0
  7  8  2  0  0  0
  8  9  1  0  0  0
  9 10  1  0  0  0
  9 22  2  0  0  0
 10 11  1  0  0  0
 10 24  1  0  0  0
 11 12  2  0  0  0
 11 13  2  0  0  0
 11 14  1  0  0  0
 14 15  1  0  0  0
 15 16  1  0  0  0
 16 17  2  0  0  0
 16 21  1  0  0  0
 17 18  1  0  0  0
 18 19  2  0  0  0
 19 20  1  0  0  0
 20 21  2  0  0  0
M  END
>  <CHROM.0>
-60.49997466,66.43211284,77.26022893,66.67574441,168.50456800,63.66137651
-155.45526536,-44.43704903

>  <CHROM.1>
-54.03521318,173.71806882,-86.74468544,176.64780262,47.91108635,-19.63331541
19.84131841,-14.37393845,-0.32860396,0.48103979,0.19575673

>  <Name>
F2256-0251

>  <RI>
2.8699e+07

>  <Rbt.Current_Directory>
/home/adria/Escritorio/rDock_CMTR_LC/2pxcA_model/inputs_sah

>  <Rbt.Executable>
rbdock ($Id: //depot/dev/client3/rdock/2013.1/src/exe/rbdock.cxx#4 $)

>  <Rbt.Library>
libRbt.so (2013.1, Build901 2013/11/27)

>  <Rbt.Parameter_File>
/home/adria/Escritorio/rDock_2013.1_src/data/scripts/dock.prm

>  <Rbt.Receptor>
sah_rdock.prm

>  <SCORE>
-274.229

>  <SCORE.INTER>
-15.7851

>  <SCORE.INTER.CONST>
1

>  <SCORE.INTER.POLAR>
-1.69577

>  <SCORE.INTER.REPUL>
0

>  <SCORE.INTER.ROT>
5

>  <SCORE.INTER.VDW>
-20.4195

>  <SCORE.INTER.norm>
-0.717504

>  <SCORE.INTRA>
-258.101

>  <SCORE.INTRA.DIHEDRAL>
-0.642666

>  <SCORE.INTRA.DIHEDRAL.0>
3.37351

>  <SCORE.INTRA.POLAR>
0

>  <SCORE.INTRA.POLAR.0>
0

>  <SCORE.INTRA.REPUL>
0

>  <SCORE.INTRA.REPUL.0>
0

>  <SCORE.INTRA.VDW>
-257.78

>  <SCORE.INTRA.VDW.0>
256.497

>  <SCORE.INTRA.norm>
-11.7319

>  <SCORE.RESTR>
0

>  <SCORE.RESTR.CAVITY>
0

>  <SCORE.RESTR.norm>
0

>  <SCORE.SYSTEM>
-0.342607

>  <SCORE.SYSTEM.CONST>
0

>  <SCORE.SYSTEM.DIHEDRAL>
5.41693

>  <SCORE.SYSTEM.POLAR>
-3.38185

>  <SCORE.SYSTEM.REPUL>
0.0259424

>  <SCORE.SYSTEM.VDW>
8.31752

>  <SCORE.SYSTEM.norm>
-0.0155731

>  <SCORE.heavy>
22

>  <SCORE.norm>
-12.465

$$$$
F2256-0251
  rDOCK(R)          3D
libRbt.so/2013.1/901 2013/11/27
 24 26  0  0  0  0  0  0  0  0999 V2000
  -17.8331   12.7386  -18.9435 O   0  0  0  0  0  0
  -18.2065   13.4906  -18.0653 C   0  0  0  0  0  0
  -17.7169   13.6391  -16.6601 C   0  0  0  0  0  0
  -18.4199   14.9355  -16.2657 C   0  0  0  0  0  0
  -19.1343   15.4526  -16.9100 C   0  0  0  0  0  0
  -19.1686   14.4571  -18.1746 N   0  0  0  0  0  0
  -19.9169   17.2204  -16.3748 C   0  0  0  0  0  0
  -20.0554   18.1571  -15.3640 C   0  0  0  0  0  0
  -19.2705   17.6460  -14.4943 C   0  0  0  0  0  0
  -19.3081   17.8541  -13.0988 N   0  0  0  0  0  0
  -20.8338   18.0844  -12.4012 S   0  0  0  0  0  0
  -21.7277   17.3788  -13.3018 O   0  0  0  0  0  0
  -20.7375   17.6542  -11.0223 O   0  0  0  0  0  0
  -21.3393   19.8316  -12.4405 C   0  0  0  0  0  0
  -22.6501   20.2355  -11.7484 C   0  0  0  0  0  0
  -22.9083   21.7404  -11.6501 C   0  0  0  0  0  0
  -21.9015   22.7792  -13.0574 C   0  0  0  0  0  0
  -21.4159   24.6241  -12.3248 C   0  0  0  0  0  0
  -22.1025   25.1893  -10.5337 C   0  0  0  0  0  0
  -23.3204   24.2238   -9.2470 C   0  0  0  0  0  0
  -23.6931   22.3138   -9.8950 C   0  0  0  0  0  0
  -18.6290   16.4667  -15.0124 C   0  0  0  0  0  0
  -19.6319   14.6453  -19.0498 H   0  0  0  0  0  0
  -18.7431   18.6707  -12.8592 H   0  0  0  0  0  0
  1  2  2  0  0  0
  2  3  1  0  0  0
  2  6  1  0  0  0
  3  4  1  0  0  0
  4  5  2  0  0  0
  4 22  1  0  0  0
  5  6  1  0  0  0
  5  7  1  0  0  0
  6 23  1  0  0  0
  7  8  2  0  0  0
  8  9  1  0  0  0
  9 10  1  0  0  0
  9 22  2  0  0  0
 10 11  1  0  0  0
 10 24  1  0  0  0
 11 12  2  0  0  0
 11 13  2  0  0  0
 11 14  1  0  0  0
 14 15  1  0  0  0
 15 16  1  0  0  0
 16 17  2  0  0  0
 16 21  1  0  0  0
 17 18  1  0  0  0
 18 19  2  0  0  0
 19 20  1  0  0  0
 20 21  2  0  0  0
M  END
>  <CHROM.0>
-60.45208094,66.50344243,-7.06516555,64.14052757,168.16533099,-60.63398373
71.21114514,-164.67595113

>  <CHROM.1>
33.46210620,26.91253623,-175.21554978,171.62505693,23.32140007,-20.47847246
18.36299253,-13.86946219,-0.41886958,1.17672380,-0.47939376

>  <Name>
F2256-0251

>  <RI>
2.8699e+07

>  <Rbt.Current_Directory>
/home/adria/Escritorio/rDock_CMTR_LC/2pxcA_model/inputs_sah

>  <Rbt.Executable>
rbdock ($Id: //depot/dev/client3/rdock/2013.1/src/exe/rbdock.cxx#4 $)

>  <Rbt.Library>
libRbt.so (2013.1, Build901 2013/11/27)

>  <Rbt.Parameter_File>
/home/adria/Escritorio/rDock_2013.1_src/data/scripts/dock.prm

>  <Rbt.Receptor>
sah_rdock.prm

>  <SCORE>
-271.159

>  <SCORE.INTER>
-11.8167

>  <SCORE.INTER.CONST>
1

>  <SCORE.INTER.POLAR>
-1.56952

>  <SCORE.INTER.REPUL>
0

>  <SCORE.INTER.ROT>
5

>  <SCORE.INTER.VDW>
-16.8804

>  <SCORE.INTER.norm>
-0.537124

>  <SCORE.INTRA>
-257.832

>  <SCORE.INTRA.DIHEDRAL>
-1.23854

>  <SCORE.INTRA.DIHEDRAL.0>
3.37351

>  <SCORE.INTRA.POLAR>
0

>  <SCORE.INTRA.POLAR.0>
0

>  <SCORE.INTRA.REPUL>
0

>  <SCORE.INTRA.REPUL.0>
0

>  <SCORE.INTRA.VDW>
-257.213

>  <SCORE.INTRA.VDW.0>
256.497

>  <SCORE.INTRA.norm>
-11.7196

>  <SCORE.RESTR>
0

>  <SCORE.RESTR.CAVITY>
0

>  <SCORE.RESTR.norm>
0

>  <SCORE.SYSTEM>
-1.51048

>  <SCORE.SYSTEM.CONST>
0

>  <SCORE.SYSTEM.DIHEDRAL>
5.07748

>  <SCORE.SYSTEM.POLAR>
-3.83399

>  <SCORE.SYSTEM.VDW>
8.98634

>  <SCORE.SYSTEM.norm>
-0.0686583

>  <SCORE.heavy>
22

>  <SCORE.norm>
-12.3254

$$$$
F2256-0251
  rDOCK(R)          3D
libRbt.so/2013.1/901 2013/11/27
 24 26  0  0  0  0  0  0  0  0999 V2000
  -21.8984   26.6156  -11.9954 O   0  0  0  0  0  0
  -22.2757   25.5213  -11.6264 C   0  0  0  0  0  0
  -21.7429   24.1636  -11.9565 C   0  0  0  0  0  0
  -22.4935   23.3223  -10.9273 C   0  0  0  0  0  0
  -23.2553   23.7286  -10.2584 C   0  0  0  0  0  0
  -23.2872   25.2637  -10.7419 N   0  0  0  0  0  0
  -24.1032   22.5868   -8.8437 C   0  0  0  0  0  0
  -24.2502   21.3068   -8.3354 C   0  0  0  0  0  0
  -23.4101   20.6890   -9.0744 C   0  0  0  0  0  0
  -23.4068   19.3102   -9.3763 N   0  0  0  0  0  0
  -23.7095   18.8795  -10.9858 S   0  0  0  0  0  0
  -24.0537   17.4716  -10.9004 O   0  0  0  0  0  0
  -24.6886   19.8154  -11.4968 O   0  0  0  0  0  0
  -22.2075   18.9800  -12.0073 C   0  0  0  0  0  0
  -22.2085   19.9100  -13.2301 C   0  0  0  0  0  0
  -23.0529   19.4399  -14.4164 C   0  0  0  0  0  0
  -21.9224   18.6497  -15.8899 C   0  0  0  0  0  0
  -22.8102   19.0076  -17.6955 C   0  0  0  0  0  0
  -24.6207   19.8541  -17.7572 C   0  0  0  0  0  0
  -25.8452   20.4104  -16.2530 C   0  0  0  0  0  0
  -24.9094   20.2000  -14.4400 C   0  0  0  0  0  0
  -22.7312   21.6032   -9.9540 C   0  0  0  0  0  0
  -23.7907   26.0068  -10.2836 H   0  0  0  0  0  0
  -24.1038   18.8325   -8.8024 H   0  0  0  0  0  0
  1  2  2  0  0  0
  2  3  1  0  0  0
  2  6  1  0  0  0
  3  4  1  0  0  0
  4  5  2  0  0  0
  4 22  1  0  0  0
  5  6  1  0  0  0
  5  7  1  0  0  0
  6 23  1  0  0  0
  7  8  2  0  0  0
  8  9  1  0  0  0
  9 10  1  0  0  0
  9 22  2  0  0  0
 10 11  1  0  0  0
 10 24  1  0  0  0
 11 12  2  0  0  0
 11 13  2  0  0  0
 11 14  1  0  0  0
 14 15  1  0  0  0
 15 16  1  0  0  0
 16 17  2  0  0  0
 16 21  1  0  0  0
 17 18  1  0  0  0
 18 19  2  0  0  0
 19 20  1  0  0  0
 20 21  2  0  0  0
M  END
>  <CHROM.0>
-60.40273697,68.25400857,72.70849188,59.86284726,-30.42676745,61.38626482
-37.84094445,-160.97514568

>  <CHROM.1>
113.49666108,-162.79152651,-121.38677293,-72.02777656,-102.50619854,-23.34219060
21.06822011,-12.08289438,-0.92663398,-1.38680037,-1.68171386

>  <Name>
F2256-0251

>  <RI>
2.8699e+07

>  <Rbt.Current_Directory>
/home/adria/Escritorio/rDock_CMTR_LC/2pxcA_model/inputs_sah

>  <Rbt.Executable>
rbdock ($Id: //depot/dev/client3/rdock/2013.1/src/exe/rbdock.cxx#4 $)

>  <Rbt.Library>
libRbt.so (2013.1, Build901 2013/11/27)

>  <Rbt.Parameter_File>
/home/adria/Escritorio/rDock_2013.1_src/data/scripts/dock.prm

>  <Rbt.Receptor>
sah_rdock.prm

>  <SCORE>
-280.233

>  <SCORE.INTER>
-15.1866

>  <SCORE.INTER.CONST>
1

>  <SCORE.INTER.POLAR>
-3.43968

>  <SCORE.INTER.REPUL>
0.00263124

>  <SCORE.INTER.ROT>
5

>  <SCORE.INTER.VDW>
-13.9048

>  <SCORE.INTER.norm>
-0.6903

>  <SCORE.INTRA>
-257.668

>  <SCORE.INTRA.DIHEDRAL>
2.33728

>  <SCORE.INTRA.DIHEDRAL.0>
3.37351

>  <SCORE.INTRA.POLAR>
0

>  <SCORE.INTRA.POLAR.0>
0

>  <SCORE.INTRA.REPUL>
0

>  <SCORE.INTRA.REPUL.0>
0

>  <SCORE.INTRA.VDW>
-258.837

>  <SCORE.INTRA.VDW.0>
256.497

>  <SCORE.INTRA.norm>
-11.7122

>  <SCORE.RESTR>
0

>  <SCORE.RESTR.CAVITY>
0

>  <SCORE.RESTR.norm>
0

>  <SCORE.SYSTEM>
-7.37842

>  <SCORE.SYSTEM.CONST>
0

>  <SCORE.SYSTEM.DIHEDRAL>
5.83207

>  <SCORE.SYSTEM.POLAR>
-3.74188

>  <SCORE.SYSTEM.VDW>
2.42795

>  <SCORE.SYSTEM.norm>
-0.335383

>  <SCORE.heavy>
22

>  <SCORE.norm>
-12.7379

$$$$
F2256-0251
  rDOCK(R)          3D
libRbt.so/2013.1/901 2013/11/27
 24 26  0  0  0  0  0  0  0  0999 V2000
  -13.9801   13.4001  -18.6434 O   0  0  0  0  0  0
  -14.8090   14.2185  -18.2982 C   0  0  0  0  0  0
  -15.8274   14.1470  -17.2055 C   0  0  0  0  0  0
  -16.2852   15.6028  -17.1684 C   0  0  0  0  0  0
  -15.9404   16.3601  -17.8759 C   0  0  0  0  0  0
  -14.9793   15.4738  -18.8150 N   0  0  0  0  0  0
  -16.4866   18.2805  -17.6814 C   0  0  0  0  0  0
  -17.3049   19.1812  -17.0200 C   0  0  0  0  0  0
  -17.8191   18.3988  -16.1498 C   0  0  0  0  0  0
  -19.0464   18.5774  -15.4759 N   0  0  0  0  0  0
  -18.9678   19.1462  -13.8828 S   0  0  0  0  0  0
  -19.2404   17.9628  -13.0871 O   0  0  0  0  0  0
  -17.6936   19.8172  -13.7359 O   0  0  0  0  0  0
  -20.3025   20.3278  -13.5195 C   0  0  0  0  0  0
  -20.2830   21.0715  -12.1753 C   0  0  0  0  0  0
  -21.4002   22.0970  -11.9718 C   0  0  0  0  0  0
  -23.2118   21.3578  -12.4666 C   0  0  0  0  0  0
  -24.3927   22.8674  -13.1757 C   0  0  0  0  0  0
  -23.7290   24.7528  -13.1181 C   0  0  0  0  0  0
  -22.0040   25.4996  -12.3846 C   0  0  0  0  0  0
  -20.7446   23.9862  -11.8095 C   0  0  0  0  0  0
  -17.2600   17.0771  -16.2544 C   0  0  0  0  0  0
  -14.3708   15.8376  -19.5314 H   0  0  0  0  0  0
  -19.5562   17.6925  -15.4530 H   0  0  0  0  0  0
  1  2  2  0  0  0
  2  3  1  0  0  0
  2  6  1  0  0  0
  3  4  1  0  0  0
  4  5  2  0  0  0
  4 22  1  0  0  0
  5  6  1  0  0  0
  5  7  1  0  0  0
  6 23  1  0  0  0
  7  8  2  0  0  0
  8  9  1  0  0  0
  9 10  1  0  0  0
  9 22  2  0  0  0
 10 11  1  0  0  0
 10 24  1  0  0  0
 11 12  2  0  0  0
 11 13  2  0  0  0
 11 14  1  0  0  0
 14 15  1  0  0  0
 15 16  1  0  0  0
 16 17  2  0  0  0
 16 21  1  0  0  0
 17 18  1  0  0  0
 18 19  2  0  0  0
 19 20  1  0  0  0
 20 21  2  0  0  0
M  END
>  <CHROM.0>
-177.19415335,64.38327246,-164.71339087,-63.83413181,-31.88176843,179.55767347
-156.45689613,-164.24627003

>  <CHROM.1>
-101.81424160,-104.45412866,-172.70282248,177.15307720,47.35773577,-18.68240740
19.01526397,-15.01794742,0.34658743,-0.90576728,2.60228252

>  <Name>
F2256-0251

>  <RI>
2.8699e+07

>  <Rbt.Current_Directory>
/home/adria/Escritorio/rDock_CMTR_LC/2pxcA_model/inputs_sah

>  <Rbt.Executable>
rbdock ($Id: //depot/dev/client3/rdock/2013.1/src/exe/rbdock.cxx#4 $)

>  <Rbt.Library>
libRbt.so (2013.1, Build901 2013/11/27)

>  <Rbt.Parameter_File>
/home/adria/Escritorio/rDock_2013.1_src/data/scripts/dock.prm

>  <Rbt.Receptor>
sah_rdock.prm

>  <SCORE>
-278.2

>  <SCORE.INTER>
-13.3801

>  <SCORE.INTER.CONST>
1

>  <SCORE.INTER.POLAR>
-1.07705

>  <SCORE.INTER.REPUL>
0

>  <SCORE.INTER.ROT>
5

>  <SCORE.INTER.VDW>
-20.1182

>  <SCORE.INTER.norm>
-0.608187

>  <SCORE.INTRA>
-258.197

>  <SCORE.INTRA.DIHEDRAL>
-0.510701

>  <SCORE.INTRA.DIHEDRAL.0>
3.37351

>  <SCORE.INTRA.POLAR>
0

>  <SCORE.INTRA.POLAR.0>
0

>  <SCORE.INTRA.REPUL>
0

>  <SCORE.INTRA.REPUL.0>
0

>  <SCORE.INTRA.VDW>
-257.942

>  <SCORE.INTRA.VDW.0>
256.497

>  <SCORE.INTRA.norm>
-11.7362

>  <SCORE.RESTR>
0

>  <SCORE.RESTR.CAVITY>
0

>  <SCORE.RESTR.norm>
0

>  <SCORE.SYSTEM>
-6.62317

>  <SCORE.SYSTEM.CONST>
0

>  <SCORE.SYSTEM.DIHEDRAL>
5.55507

>  <SCORE.SYSTEM.POLAR>
-3.67748

>  <SCORE.SYSTEM.VDW>
3.10272

>  <SCORE.SYSTEM.norm>
-0.301053

>  <SCORE.heavy>
22

>  <SCORE.norm>
-12.6455

$$$$
F2256-0251
  rDOCK(R)          3D
libRbt.so/2013.1/901 2013/11/27
 24 26  0  0  0  0  0  0  0  0999 V2000
  -13.5875   19.3771  -17.0575 O   0  0  0  0  0  0
  -14.7702   19.4045  -16.7808 C   0  0  0  0  0  0
  -15.6992   18.2841  -16.4374 C   0  0  0  0  0  0
  -16.9012   19.0767  -15.9302 C   0  0  0  0  0  0
  -16.9585   20.1671  -15.9593 C   0  0  0  0  0  0
  -15.5534   20.5199  -16.6611 N   0  0  0  0  0  0
  -18.5158   21.1416  -15.1536 C   0  0  0  0  0  0
  -19.7771   21.0278  -14.5928 C   0  0  0  0  0  0
  -19.8644   19.7544  -14.5274 C   0  0  0  0  0  0
  -21.0512   18.9919  -14.4788 N   0  0  0  0  0  0
  -21.2359   17.9486  -13.1578 S   0  0  0  0  0  0
  -22.2459   17.0079  -13.6081 O   0  0  0  0  0  0
  -19.9167   17.4587  -12.8183 O   0  0  0  0  0  0
  -21.9379   18.8034  -11.7134 C   0  0  0  0  0  0
  -21.3664   20.1736  -11.3180 C   0  0  0  0  0  0
  -21.7742   21.3431  -12.2165 C   0  0  0  0  0  0
  -20.5108   22.9081  -12.0493 C   0  0  0  0  0  0
  -21.5395   24.6485  -12.3481 C   0  0  0  0  0  0
  -23.4584   24.5800  -12.9063 C   0  0  0  0  0  0
  -24.6363   22.9927  -13.3116 C   0  0  0  0  0  0
  -23.6680   21.2392  -12.8703 C   0  0  0  0  0  0
  -18.6472   19.1329  -14.9777 C   0  0  0  0  0  0
  -15.1720   21.4472  -16.7638 H   0  0  0  0  0  0
  -21.1267   18.4219  -15.3231 H   0  0  0  0  0  0
  1  2  2  0  0  0
  2  3  1  0  0  0
  2  6  1  0  0  0
  3  4  1  0  0  0
  4  5  2  0  0  0
  4 22  1  0  0  0
  5  6  1  0  0  0
  5  7  1  0  0  0
  6 23  1  0  0  0
  7  8  2  0  0  0
  8  9  1  0  0  0
  9 10  1  0  0  0
  9 22  2  0  0  0
 10 11  1  0  0  0
 10 24  1  0  0  0
 11 12  2  0  0  0
 11 13  2  0  0  0
 11 14  1  0  0  0
 14 15  1  0  0  0
 15 16  1  0  0  0
 16 17  2  0  0  0
 16 21  1  0  0  0
 17 18  1  0  0  0
 18 19  2  0  0  0
 19 20  1  0  0  0
 20 21  2  0  0  0
M  END
>  <CHROM.0>
-62.11747472,-74.01012552,-48.70639727,63.88519976,167.96476537,60.97741948
82.66784444,-161.87854526

>  <CHROM.1>
-123.17185859,-160.71772701,-45.80374134,74.52220375,-159.58063718,-19.77706824
20.05482742,-14.07907937,-0.24138998,0.50467272,-0.03561329

>  <Name>
F2256-0251

>  <RI>
2.8699e+07

>  <Rbt.Current_Directory>
/home/adria/Escritorio/rDock_CMTR_LC/2pxcA_model/inputs_sah

>  <Rbt.Executable>
rbdock ($Id: //depot/dev/client3/rdock/2013.1/src/exe/rbdock.cxx#4 $)

>  <Rbt.Library>
libRbt.so (2013.1, Build901 2013/11/27)

>  <Rbt.Parameter_File>
/home/adria/Escritorio/rDock_2013.1_src/data/scripts/dock.prm

>  <Rbt.Receptor>
sah_rdock.prm

>  <SCORE>
-278.712

>  <SCORE.INTER>
-16.9575

>  <SCORE.INTER.CONST>
1

>  <SCORE.INTER.POLAR>
-1.71905

>  <SCORE.INTER.REPUL>
0.0193816

>  <SCORE.INTER.ROT>
5

>  <SCORE.INTER.VDW>
-21.6096

>  <SCORE.INTER.norm>
-0.770793

>  <SCORE.INTRA>
-259.144

>  <SCORE.INTRA.DIHEDRAL>
0.333253

>  <SCORE.INTRA.DIHEDRAL.0>
3.37351

>  <SCORE.INTRA.POLAR>
0

>  <SCORE.INTRA.POLAR.0>
0

>  <SCORE.INTRA.REPUL>
0

>  <SCORE.INTRA.REPUL.0>
0

>  <SCORE.INTRA.VDW>
-259.311

>  <SCORE.INTRA.VDW.0>
256.497

>  <SCORE.INTRA.norm>
-11.7793

>  <SCORE.RESTR>
0

>  <SCORE.RESTR.CAVITY>
0

>  <SCORE.RESTR.norm>
0

>  <SCORE.SYSTEM>
-2.61006

>  <SCORE.SYSTEM.CONST>
0

>  <SCORE.SYSTEM.DIHEDRAL>
3.61216

>  <SCORE.SYSTEM.POLAR>
-3.88551

>  <SCORE.SYSTEM.REPUL>
0.0402893

>  <SCORE.SYSTEM.VDW>
8.59313

>  <SCORE.SYSTEM.norm>
-0.118639

>  <SCORE.heavy>
22

>  <SCORE.norm>
-12.6687

$$$$
F2256-0251
  rDOCK(R)          3D
libRbt.so/2013.1/901 2013/11/27
 24 26  0  0  0  0  0  0  0  0999 V2000
  -13.1104   19.6690  -17.6515 O   0  0  0  0  0  0
  -14.2738   19.5371  -17.3272 C   0  0  0  0  0  0
  -15.1155   18.3027  -17.2634 C   0  0  0  0  0  0
  -16.3273   18.8419  -16.5076 C   0  0  0  0  0  0
  -16.4477   19.8928  -16.2352 C   0  0  0  0  0  0
  -15.1099   20.5204  -16.8736 N   0  0  0  0  0  0
  -18.0057   20.5009  -15.1275 C   0  0  0  0  0  0
  -19.2221   20.1511  -14.5653 C   0  0  0  0  0  0
  -19.2334   18.9044  -14.8467 C   0  0  0  0  0  0
  -20.3702   18.0751  -14.9572 N   0  0  0  0  0  0
  -21.2451   17.7842  -13.5369 S   0  0  0  0  0  0
  -22.3683   16.9830  -13.9893 O   0  0  0  0  0  0
  -20.3186   17.2219  -12.5773 O   0  0  0  0  0  0
  -21.9496   19.3146  -12.8505 C   0  0  0  0  0  0
  -22.4102   19.3215  -11.3848 C   0  0  0  0  0  0
  -23.1718   20.5711  -10.9380 C   0  0  0  0  0  0
  -22.3034   22.2689  -11.5988 C   0  0  0  0  0  0
  -22.6261   23.7688  -10.2488 C   0  0  0  0  0  0
  -23.8164   23.4441   -8.6752 C   0  0  0  0  0  0
  -24.8786   21.8054   -8.1675 C   0  0  0  0  0  0
  -24.4478   20.2433   -9.4250 C   0  0  0  0  0  0
  -18.0127   18.5153  -15.5017 C   0  0  0  0  0  0
  -14.7883   21.4656  -16.7354 H   0  0  0  0  0  0
  -20.0950   17.1651  -15.3310 H   0  0  0  0  0  0
  1  2  2  0  0  0
  2  3  1  0  0  0
  2  6  1  0  0  0
  3  4  1  0  0  0
  4  5  2  0  0  0
  4 22  1  0  0  0
  5  6  1  0  0  0
  5  7  1  0  0  0
  6 23  1  0  0  0
  7  8  2  0  0  0
  8  9  1  0  0  0
  9 10  1  0  0  0
  9 22  2  0  0  0
 10 11  1  0  0  0
 10 24  1  0  0  0
 11 12  2  0  0  0
 11 13  2  0  0  0
 11 14  1  0  0  0
 14 15  1  0  0  0
 15 16  1  0  0  0
 16 17  2  0  0  0
 16 21  1  0  0  0
 17 18  1  0  0  0
 18 19  2  0  0  0
 19 20  1  0  0  0
 20 21  2  0  0  0
M  END
>  <CHROM.0>
-59.07794997,-70.61684973,75.77738485,-59.79348572,-31.34837006,61.28303741
-156.50145215,-160.76190695

>  <CHROM.1>
-66.77480372,176.82785089,-162.29292658,-171.56026430,-44.06099123,-19.82141126
19.61808168,-13.67874260,-0.42869141,0.57837065,0.43360075

>  <Name>
F2256-0251

>  <RI>
2.8699e+07

>  <Rbt.Current_Directory>
/home/adria/Escritorio/rDock_CMTR_LC/2pxcA_model/inputs_sah

>  <Rbt.Executable>
rbdock ($Id: //depot/dev/client3/rdock/2013.1/src/exe/rbdock.cxx#4 $)

>  <Rbt.Library>
libRbt.so (2013.1, Build901 2013/11/27)

>  <Rbt.Parameter_File>
/home/adria/Escritorio/rDock_2013.1_src/data/scripts/dock.prm

>  <Rbt.Receptor>
sah_rdock.prm

>  <SCORE>
-280.886

>  <SCORE.INTER>
-14.9444

>  <SCORE.INTER.CONST>
1

>  <SCORE.INTER.POLAR>
-1.70381

>  <SCORE.INTER.REPUL>
0.000757269

>  <SCORE.INTER.ROT>
5

>  <SCORE.INTER.VDW>
-19.5552

>  <SCORE.INTER.norm>
-0.679292

>  <SCORE.INTRA>
-258.228

>  <SCORE.INTRA.DIHEDRAL>
-0.646608

>  <SCORE.INTRA.DIHEDRAL.0>
3.37351

>  <SCORE.INTRA.POLAR>
0

>  <SCORE.INTRA.POLAR.0>
0

>  <SCORE.INTRA.REPUL>
0

>  <SCORE.INTRA.REPUL.0>
0

>  <SCORE.INTRA.VDW>
-257.904

>  <SCORE.INTRA.VDW.0>
256.497

>  <SCORE.INTRA.norm>
-11.7376

>  <SCORE.RESTR>
0

>  <SCORE.RESTR.CAVITY>
0

>  <SCORE.RESTR.norm>
0

>  <SCORE.SYSTEM>
-7.7144

>  <SCORE.SYSTEM.CONST>
0

>  <SCORE.SYSTEM.DIHEDRAL>
6.19697

>  <SCORE.SYSTEM.POLAR>
-4.10486

>  <SCORE.SYSTEM.REPUL>
0.034005

>  <SCORE.SYSTEM.VDW>
2.97361

>  <SCORE.SYSTEM.norm>
-0.350655

>  <SCORE.heavy>
22

>  <SCORE.norm>
-12.7676

$$$$
F2256-0251
  rDOCK(R)          3D
libRbt.so/2013.1/901 2013/11/27
 24 26  0  0  0  0  0  0  0  0999 V2000
  -22.5697   27.0626  -12.5338 O   0  0  0  0  0  0
  -22.4082   25.8638  -12.4204 C   0  0  0  0  0  0
  -23.2375   24.7329  -12.9398 C   0  0  0  0  0  0
  -22.2903   23.5638  -12.6818 C   0  0  0  0  0  0
  -21.3350   23.6668  -12.1624 C   0  0  0  0  0  0
  -21.3561   25.2374  -11.8100 N   0  0  0  0  0  0
  -20.0862   22.1078  -11.9778 C   0  0  0  0  0  0
  -19.9188   20.7433  -12.1462 C   0  0  0  0  0  0
  -21.0188   20.4673  -12.7357 C   0  0  0  0  0  0
  -21.6636   19.2123  -12.7732 N   0  0  0  0  0  0
  -20.9549   18.0176  -13.7418 S   0  0  0  0  0  0
  -19.6209   17.8787  -13.1860 O   0  0  0  0  0  0
  -21.8473   16.8779  -13.7279 O   0  0  0  0  0  0
  -20.7399   18.5781  -15.4591 C   0  0  0  0  0  0
  -19.7609   17.8167  -16.3659 C   0  0  0  0  0  0
  -18.2825   17.9385  -15.9905 C   0  0  0  0  0  0
  -17.6651   19.8593  -15.9416 C   0  0  0  0  0  0
  -15.6950   19.9551  -16.4764 C   0  0  0  0  0  0
  -14.6667   18.2656  -16.7710 C   0  0  0  0  0  0
  -15.2443   16.3428  -16.5691 C   0  0  0  0  0  0
  -17.2552   16.2260  -16.1826 C   0  0  0  0  0  0
  -21.7878   21.6605  -12.9714 C   0  0  0  0  0  0
  -20.5831   25.7567  -11.4244 H   0  0  0  0  0  0
  -22.6244   19.3308  -13.0991 H   0  0  0  0  0  0
  1  2  2  0  0  0
  2  3  1  0  0  0
  2  6  1  0  0  0
  3  4  1  0  0  0
  4  5  2  0  0  0
  4 22  1  0  0  0
  5  6  1  0  0  0
  5  7  1  0  0  0
  6 23  1  0  0  0
  7  8  2  0  0  0
  8  9  1  0  0  0
  9 10  1  0  0  0
  9 22  2  0  0  0
 10 11  1  0  0  0
 10 24  1  0  0  0
 11 12  2  0  0  0
 11 13  2  0  0  0
 11 14  1  0  0  0
 14 15  1  0  0  0
 15 16  1  0  0  0
 16 17  2  0  0  0
 16 21  1  0  0  0
 17 18  1  0  0  0
 18 19  2  0  0  0
 19 20  1  0  0  0
 20 21  2  0  0  0
M  END
>  <CHROM.0>
-61.39773741,-74.31257508,-126.94073771,64.78236723,168.38271555,63.17454383
83.93321247,-160.97053001

>  <CHROM.1>
-72.62316457,58.75614839,162.18946944,-67.73489043,-57.10274681,-20.08558009
20.39177276,-13.94231734,-2.16755556,-0.49186520,-3.00561494

>  <Name>
F2256-0251

>  <RI>
2.8699e+07

>  <Rbt.Current_Directory>
/home/adria/Escritorio/rDock_CMTR_LC/2pxcA_model/inputs_sah

>  <Rbt.Executable>
rbdock ($Id: //depot/dev/client3/rdock/2013.1/src/exe/rbdock.cxx#4 $)

>  <Rbt.Library>
libRbt.so (2013.1, Build901 2013/11/27)

>  <Rbt.Parameter_File>
/home/adria/Escritorio/rDock_2013.1_src/data/scripts/dock.prm

>  <Rbt.Receptor>
sah_rdock.prm

>  <SCORE>
-278.701

>  <SCORE.INTER>
-17.3536

>  <SCORE.INTER.CONST>
1

>  <SCORE.INTER.POLAR>
-1.96041

>  <SCORE.INTER.REPUL>
0

>  <SCORE.INTER.ROT>
5

>  <SCORE.INTER.VDW>
-21.0882

>  <SCORE.INTER.norm>
-0.7888

>  <SCORE.INTRA>
-259.207

>  <SCORE.INTRA.DIHEDRAL>
-1.13941

>  <SCORE.INTRA.DIHEDRAL.0>
3.37351

>  <SCORE.INTRA.POLAR>
0

>  <SCORE.INTRA.POLAR.0>
0

>  <SCORE.INTRA.REPUL>
0

>  <SCORE.INTRA.REPUL.0>
0

>  <SCORE.INTRA.VDW>
-258.637

>  <SCORE.INTRA.VDW.0>
256.497

>  <SCORE.INTRA.norm>
-11.7821

>  <SCORE.RESTR>
0

>  <SCORE.RESTR.CAVITY>
0

>  <SCORE.RESTR.norm>
0

>  <SCORE.SYSTEM>
-2.1402

>  <SCORE.SYSTEM.CONST>
0

>  <SCORE.SYSTEM.DIHEDRAL>
6.98779

>  <SCORE.SYSTEM.POLAR>
-4.4754

>  <SCORE.SYSTEM.REPUL>
0.0407948

>  <SCORE.SYSTEM.VDW>
9.37829

>  <SCORE.SYSTEM.norm>
-0.0972816

>  <SCORE.heavy>
22

>  <SCORE.norm>
-12.6682

$$$$
F2256-0251
  rDOCK(R)          3D
libRbt.so/2013.1/901 2013/11/27
 24 26  0  0  0  0  0  0  0  0999 V2000
  -14.5359   12.6297  -19.0774 O   0  0  0  0  0  0
  -14.8209   13.7689  -18.7658 C   0  0  0  0  0  0
  -15.5892   14.2750  -17.5869 C   0  0  0  0  0  0
  -15.2919   15.7686  -17.6928 C   0  0  0  0  0  0
  -14.7309   16.2134  -18.5177 C   0  0  0  0  0  0
  -14.4452   14.9107  -19.4193 N   0  0  0  0  0  0
  -14.2684   18.1653  -18.5187 C   0  0  0  0  0  0
  -14.4614   19.3923  -17.9060 C   0  0  0  0  0  0
  -15.1592   19.0191  -16.9023 C   0  0  0  0  0  0
  -16.0485   19.8164  -16.1501 N   0  0  0  0  0  0
  -17.6988   19.6505  -16.4914 S   0  0  0  0  0  0
  -17.8467   20.3105  -17.7761 O   0  0  0  0  0  0
  -18.0138   18.2419  -16.3813 O   0  0  0  0  0  0
  -18.7298   20.5796  -15.3151 C   0  0  0  0  0  0
  -18.7182   20.1636  -13.8362 C   0  0  0  0  0  0
  -19.8163   20.7813  -12.9680 C   0  0  0  0  0  0
  -20.8613   19.3840  -11.9536 C   0  0  0  0  0  0
  -22.7873   20.0208  -11.7059 C   0  0  0  0  0  0
  -23.3010   21.8656  -12.2816 C   0  0  0  0  0  0
  -22.1722   23.3409  -13.0693 C   0  0  0  0  0  0
  -20.2749   22.6699  -13.4657 C   0  0  0  0  0  0
  -15.3141   17.5885  -16.8888 C   0  0  0  0  0  0
  -13.8427   14.8838  -20.2268 H   0  0  0  0  0  0
  -15.8143   20.8026  -16.2764 H   0  0  0  0  0  0
  1  2  2  0  0  0
  2  3  1  0  0  0
  2  6  1  0  0  0
  3  4  1  0  0  0
  4  5  2  0  0  0
  4 22  1  0  0  0
  5  6  1  0  0  0
  5  7  1  0  0  0
  6 23  1  0  0  0
  7  8  2  0  0  0
  8  9  1  0  0  0
  9 10  1  0  0  0
  9 22  2  0  0  0
 10 11  1  0  0  0
 10 24  1  0  0  0
 11 12  2  0  0  0
 11 13  2  0  0  0
 11 14  1  0  0  0
 14 15  1  0  0  0
 15 16  1  0  0  0
 16 17  2  0  0  0
 16 21  1  0  0  0
 17 18  1  0  0  0
 18 19  2  0  0  0
 19 20  1  0  0  0
 20 21  2  0  0  0
M  END
>  <CHROM.0>
-61.93627394,-71.49179276,-8.94622676,63.41475684,-30.62890118,-61.10494751
-156.36837428,-158.41723359

>  <CHROM.1>
100.69113085,-72.85683869,-64.28890135,-167.50006676,127.15375551,-17.48252958
18.60193788,-16.11250120,0.63394660,-0.69241017,-3.11937943

>  <Name>
F2256-0251

>  <RI>
2.8699e+07

>  <Rbt.Current_Directory>
/home/adria/Escritorio/rDock_CMTR_LC/2pxcA_model/inputs_sah

>  <Rbt.Executable>
rbdock ($Id: //depot/dev/client3/rdock/2013.1/src/exe/rbdock.cxx#4 $)

>  <Rbt.Library>
libRbt.so (2013.1, Build901 2013/11/27)

>  <Rbt.Parameter_File>
/home/adria/Escritorio/rDock_2013.1_src/data/scripts/dock.prm

>  <Rbt.Receptor>
sah_rdock.prm

>  <SCORE>
-285.537

>  <SCORE.INTER>
-19.1152

>  <SCORE.INTER.CONST>
1

>  <SCORE.INTER.POLAR>
-1.67148

>  <SCORE.INTER.REPUL>
0

>  <SCORE.INTER.ROT>
5

>  <SCORE.INTER.VDW>
-23.8321

>  <SCORE.INTER.norm>
-0.868871

>  <SCORE.INTRA>
-258.828

>  <SCORE.INTRA.DIHEDRAL>
-1.554

>  <SCORE.INTRA.DIHEDRAL.0>
3.37351

>  <SCORE.INTRA.POLAR>
0

>  <SCORE.INTRA.POLAR.0>
0

>  <SCORE.INTRA.REPUL>
0

>  <SCORE.INTRA.REPUL.0>
0

>  <SCORE.INTRA.VDW>
-258.051

>  <SCORE.INTRA.VDW.0>
256.497

>  <SCORE.INTRA.norm>
-11.7649

>  <SCORE.RESTR>
0

>  <SCORE.RESTR.CAVITY>
0

>  <SCORE.RESTR.norm>
0

>  <SCORE.SYSTEM>
-7.59369

>  <SCORE.SYSTEM.CONST>
0

>  <SCORE.SYSTEM.DIHEDRAL>
9.45925

>  <SCORE.SYSTEM.POLAR>
-4.67267

>  <SCORE.SYSTEM.REPUL>
0.0357317

>  <SCORE.SYSTEM.VDW>
3.38513

>  <SCORE.SYSTEM.norm>
-0.345168

>  <SCORE.heavy>
22

>  <SCORE.norm>
-12.979

$$$$
F2256-0251
  rDOCK(R)          3D
libRbt.so/2013.1/901 2013/11/27
 24 26  0  0  0  0  0  0  0  0999 V2000
  -13.0604   19.7657  -17.6876 O   0  0  0  0  0  0
  -14.0927   19.5628  -17.0801 C   0  0  0  0  0  0
  -15.1118   20.5329  -16.5735 C   0  0  0  0  0  0
  -16.2367   19.5711  -16.1996 C   0  0  0  0  0  0
  -16.1420   18.4843  -16.2540 C   0  0  0  0  0  0
  -14.6162   18.3433  -16.7475 N   0  0  0  0  0  0
  -17.7079   17.2904  -15.8711 C   0  0  0  0  0  0
  -19.0081   17.2161  -15.3998 C   0  0  0  0  0  0
  -19.2505   18.4624  -15.2531 C   0  0  0  0  0  0
  -20.2113   19.0394  -14.3951 N   0  0  0  0  0  0
  -19.7296   19.3384  -12.7994 S   0  0  0  0  0  0
  -20.1373   18.1377  -12.0922 O   0  0  0  0  0  0
  -18.3262   19.6908  -12.8405 O   0  0  0  0  0  0
  -20.6621   20.7130  -12.0573 C   0  0  0  0  0  0
  -20.6571   22.0753  -12.7675 C   0  0  0  0  0  0
  -21.1798   23.2524  -11.9413 C   0  0  0  0  0  0
  -19.6832   24.3500  -11.1483 C   0  0  0  0  0  0
  -20.2908   25.1423   -9.3652 C   0  0  0  0  0  0
  -22.1864   24.9080   -8.7734 C   0  0  0  0  0  0
  -23.7365   24.0152   -9.7068 C   0  0  0  0  0  0
  -23.1107   23.0836  -11.4236 C   0  0  0  0  0  0
  -18.1361   19.2574  -15.6966 C   0  0  0  0  0  0
  -14.1749   17.4831  -17.0322 H   0  0  0  0  0  0
  -21.0359   18.4382  -14.3512 H   0  0  0  0  0  0
  1  2  2  0  0  0
  2  3  1  0  0  0
  2  6  1  0  0  0
  3  4  1  0  0  0
  4  5  2  0  0  0
  4 22  1  0  0  0
  5  6  1  0  0  0
  5  7  1  0  0  0
  6 23  1  0  0  0
  7  8  2  0  0  0
  8  9  1  0  0  0
  9 10  1  0  0  0
  9 22  2  0  0  0
 10 11  1  0  0  0
 10 24  1  0  0  0
 11 12  2  0  0  0
 11 13  2  0  0  0
 11 14  1  0  0  0
 14 15  1  0  0  0
 15 16  1  0  0  0
 16 17  2  0  0  0
 16 21  1  0  0  0
 17 18  1  0  0  0
 18 19  2  0  0  0
 19 20  1  0  0  0
 20 21  2  0  0  0
M  END
>  <CHROM.0>
-60.45950243,66.08956748,-164.76959584,64.93134024,168.96861599,61.18161761
-155.87508492,-162.61757639

>  <CHROM.1>
86.53242287,-92.90495973,-55.89841102,-166.47584246,99.66263271,-18.80301493
20.43242240,-13.68695381,-0.74609391,0.53096768,0.42347346

>  <Name>
F2256-0251

>  <RI>
2.8699e+07

>  <Rbt.Current_Directory>
/home/adria/Escritorio/rDock_CMTR_LC/2pxcA_model/inputs_sah

>  <Rbt.Executable>
rbdock ($Id: //depot/dev/client3/rdock/2013.1/src/exe/rbdock.cxx#4 $)

>  <Rbt.Library>
libRbt.so (2013.1, Build901 2013/11/27)

>  <Rbt.Parameter_File>
/home/adria/Escritorio/rDock_2013.1_src/data/scripts/dock.prm

>  <Rbt.Receptor>
sah_rdock.prm

>  <SCORE>
-278.514

>  <SCORE.INTER>
-17.79

>  <SCORE.INTER.CONST>
1

>  <SCORE.INTER.POLAR>
-1.28766

>  <SCORE.INTER.REPUL>
0.0283948

>  <SCORE.INTER.ROT>
5

>  <SCORE.INTER.VDW>
-23.954

>  <SCORE.INTER.norm>
-0.808638

>  <SCORE.INTRA>
-258.451

>  <SCORE.INTRA.DIHEDRAL>
0.066381

>  <SCORE.INTRA.DIHEDRAL.0>
3.37351

>  <SCORE.INTRA.POLAR>
0

>  <SCORE.INTRA.POLAR.0>
0

>  <SCORE.INTRA.REPUL>
0

>  <SCORE.INTRA.REPUL.0>
0

>  <SCORE.INTRA.VDW>
-258.485

>  <SCORE.INTRA.VDW.0>
256.497

>  <SCORE.INTRA.norm>
-11.7478

>  <SCORE.RESTR>
0

>  <SCORE.RESTR.CAVITY>
0

>  <SCORE.RESTR.norm>
0

>  <SCORE.SYSTEM>
-2.27253

>  <SCORE.SYSTEM.CONST>
0

>  <SCORE.SYSTEM.DIHEDRAL>
3.11554

>  <SCORE.SYSTEM.POLAR>
-3.63781

>  <SCORE.SYSTEM.VDW>
8.53826

>  <SCORE.SYSTEM.norm>
-0.103297

>  <SCORE.heavy>
22

>  <SCORE.norm>
-12.6597

$$$$
F2256-0251
  rDOCK(R)          3D
libRbt.so/2013.1/901 2013/11/27
 24 26  0  0  0  0  0  0  0  0999 V2000
  -13.3978   18.7611  -18.2111 O   0  0  0  0  0  0
  -14.4457   18.8273  -17.5997 C   0  0  0  0  0  0
  -14.7849   19.5950  -16.3621 C   0  0  0  0  0  0
  -16.3038   19.4425  -16.3584 C   0  0  0  0  0  0
  -16.8485   18.8281  -17.0787 C   0  0  0  0  0  0
  -15.6285   18.2317  -17.9432 N   0  0  0  0  0  0
  -18.8540   18.7826  -17.0900 C   0  0  0  0  0  0
  -20.0155   19.1518  -16.4321 C   0  0  0  0  0  0
  -19.5124   19.8760  -15.5068 C   0  0  0  0  0  0
  -20.0967   20.1732  -14.2569 N   0  0  0  0  0  0
  -20.6201   18.8591  -13.3260 S   0  0  0  0  0  0
  -21.7044   18.2982  -14.1118 O   0  0  0  0  0  0
  -19.4548   18.0458  -13.0499 O   0  0  0  0  0  0
  -21.3527   19.3955  -11.7495 C   0  0  0  0  0  0
  -22.5592   20.3461  -11.7829 C   0  0  0  0  0  0
  -23.0707   20.8118  -10.4181 C   0  0  0  0  0  0
  -24.0364   19.3436   -9.4255 C   0  0  0  0  0  0
  -25.5013   20.1604   -8.2579 C   0  0  0  0  0  0
  -25.6566   22.1487   -8.1124 C   0  0  0  0  0  0
  -24.5153   23.6023   -8.9221 C   0  0  0  0  0  0
  -23.1374   22.8067  -10.2166 C   0  0  0  0  0  0
  -18.0859   19.9865  -15.6604 C   0  0  0  0  0  0
  -15.7248   17.6987  -18.7932 H   0  0  0  0  0  0
  -20.9040   20.7840  -14.3930 H   0  0  0  0  0  0
  1  2  2  0  0  0
  2  3  1  0  0  0
  2  6  1  0  0  0
  3  4  1  0  0  0
  4  5  2  0  0  0
  4 22  1  0  0  0
  5  6  1  0  0  0
  5  7  1  0  0  0
  6 23  1  0  0  0
  7  8  2  0  0  0
  8  9  1  0  0  0
  9 10  1  0  0  0
  9 22  2  0  0  0
 10 11  1  0  0  0
 10 24  1  0  0  0
 11 12  2  0  0  0
 11 13  2  0  0  0
 11 14  1  0  0  0
 14 15  1  0  0  0
 15 16  1  0  0  0
 16 17  2  0  0  0
 16 21  1  0  0  0
 17 18  1  0  0  0
 18 19  2  0  0  0
 19 20  1  0  0  0
 20 21  2  0  0  0
M  END
>  <CHROM.0>
42.28238300,63.75972468,71.54555109,61.56886664,168.73797301,-174.86309670
-38.31147565,-160.42134785

>  <CHROM.1>
52.75519058,-65.72587578,58.30560916,-176.80942313,-72.74443368,-19.97189836
19.69408862,-13.73979472,-0.52603713,0.57815009,0.52957733

>  <Name>
F2256-0251

>  <RI>
2.8699e+07

>  <Rbt.Current_Directory>
/home/adria/Escritorio/rDock_CMTR_LC/2pxcA_model/inputs_sah

>  <Rbt.Executable>
rbdock ($Id: //depot/dev/client3/rdock/2013.1/src/exe/rbdock.cxx#4 $)

>  <Rbt.Library>
libRbt.so (2013.1, Build901 2013/11/27)

>  <Rbt.Parameter_File>
/home/adria/Escritorio/rDock_2013.1_src/data/scripts/dock.prm

>  <Rbt.Receptor>
sah_rdock.prm

>  <SCORE>
-272.209

>  <SCORE.INTER>
-14.698

>  <SCORE.INTER.CONST>
1

>  <SCORE.INTER.POLAR>
-1.71622

>  <SCORE.INTER.REPUL>
0

>  <SCORE.INTER.ROT>
5

>  <SCORE.INTER.VDW>
-19.2629

>  <SCORE.INTER.norm>
-0.668092

>  <SCORE.INTRA>
-259.513

>  <SCORE.INTRA.DIHEDRAL>
-2.10332

>  <SCORE.INTRA.DIHEDRAL.0>
3.37351

>  <SCORE.INTRA.POLAR>
0

>  <SCORE.INTRA.POLAR.0>
0

>  <SCORE.INTRA.REPUL>
0

>  <SCORE.INTRA.REPUL.0>
0

>  <SCORE.INTRA.VDW>
-258.461

>  <SCORE.INTRA.VDW.0>
256.497

>  <SCORE.INTRA.norm>
-11.796

>  <SCORE.RESTR>
0

>  <SCORE.RESTR.CAVITY>
0

>  <SCORE.RESTR.norm>
0

>  <SCORE.SYSTEM>
2.0019

>  <SCORE.SYSTEM.CONST>
0

>  <SCORE.SYSTEM.DIHEDRAL>
4.09519

>  <SCORE.SYSTEM.POLAR>
-3.53224

>  <SCORE.SYSTEM.REPUL>
0.115243

>  <SCORE.SYSTEM.VDW>
11.3877

>  <SCORE.SYSTEM.norm>
0.0909955

>  <SCORE.heavy>
22

>  <SCORE.norm>
-12.3731

$$$$
F2256-0251
  rDOCK(R)          3D
libRbt.so/2013.1/901 2013/11/27
 24 26  0  0  0  0  0  0  0  0999 V2000
  -22.1420   26.5883  -11.3356 O   0  0  0  0  0  0
  -21.8965   25.4324  -11.6176 C   0  0  0  0  0  0
  -20.6125   24.6732  -11.5118 C   0  0  0  0  0  0
  -21.1196   23.2524  -11.7451 C   0  0  0  0  0  0
  -22.1548   23.0178  -12.0028 C   0  0  0  0  0  0
  -22.7871   24.4968  -12.0684 N   0  0  0  0  0  0
  -22.7737   21.1166  -12.1648 C   0  0  0  0  0  0
  -22.3961   19.7846  -12.2050 C   0  0  0  0  0  0
  -21.1512   19.9107  -11.9443 C   0  0  0  0  0  0
  -20.1235   19.0028  -12.2785 N   0  0  0  0  0  0
  -20.4671   17.8720  -13.4914 S   0  0  0  0  0  0
  -19.2091   17.1680  -13.6639 O   0  0  0  0  0  0
  -21.6358   17.1336  -13.0620 O   0  0  0  0  0  0
  -20.8284   18.6756  -15.0831 C   0  0  0  0  0  0
  -20.7133   17.8454  -16.3707 C   0  0  0  0  0  0
  -19.2875   17.5578  -16.8456 C   0  0  0  0  0  0
  -18.6960   15.6834  -16.3875 C   0  0  0  0  0  0
  -16.6793   15.6673  -16.0573 C   0  0  0  0  0  0
  -15.6100   17.3248  -16.3856 C   0  0  0  0  0  0
  -16.1899   19.1258  -17.0865 C   0  0  0  0  0  0
  -18.2304   19.2072  -17.2779 C   0  0  0  0  0  0
  -20.8178   21.2866  -11.6868 C   0  0  0  0  0  0
  -23.7683   24.7052  -12.1670 H   0  0  0  0  0  0
  -19.8483   18.4762  -11.4476 H   0  0  0  0  0  0
  1  2  2  0  0  0
  2  3  1  0  0  0
  2  6  1  0  0  0
  3  4  1  0  0  0
  4  5  2  0  0  0
  4 22  1  0  0  0
  5  6  1  0  0  0
  5  7  1  0  0  0
  6 23  1  0  0  0
  7  8  2  0  0  0
  8  9  1  0  0  0
  9 10  1  0  0  0
  9 22  2  0  0  0
 10 11  1  0  0  0
 10 24  1  0  0  0
 11 12  2  0  0  0
 11 13  2  0  0  0
 11 14  1  0  0  0
 14 15  1  0  0  0
 15 16  1  0  0  0
 16 17  2  0  0  0
 16 21  1  0  0  0
 17 18  1  0  0  0
 18 19  2  0  0  0
 19 20  1  0  0  0
 20 21  2  0  0  0
M  END
>  <CHROM.0>
-170.16336529,-69.68371797,-47.00756001,64.12423877,-29.74730004,178.10140668
-37.06413556,-162.04951690

>  <CHROM.1>
18.33185223,176.08160237,160.43061828,-75.09697659,101.79481774,-20.29307114
19.95098666,-13.69289530,-2.13940560,-0.71245738,-2.99741386

>  <Name>
F2256-0251

>  <RI>
2.8699e+07

>  <Rbt.Current_Directory>
/home/adria/Escritorio/rDock_CMTR_LC/2pxcA_model/inputs_sah

>  <Rbt.Executable>
rbdock ($Id: //depot/dev/client3/rdock/2013.1/src/exe/rbdock.cxx#4 $)

>  <Rbt.Library>
libRbt.so (2013.1, Build901 2013/11/27)

>  <Rbt.Parameter_File>
/home/adria/Escritorio/rDock_2013.1_src/data/scripts/dock.prm

>  <Rbt.Receptor>
sah_rdock.prm

>  <SCORE>
-282.659

>  <SCORE.INTER>
-16.702

>  <SCORE.INTER.CONST>
1

>  <SCORE.INTER.POLAR>
-2.38965

>  <SCORE.INTER.REPUL>
0

>  <SCORE.INTER.ROT>
5

>  <SCORE.INTER.VDW>
-18.9772

>  <SCORE.INTER.norm>
-0.759183

>  <SCORE.INTRA>
-258.982

>  <SCORE.INTRA.DIHEDRAL>
-0.697259

>  <SCORE.INTRA.DIHEDRAL.0>
3.37351

>  <SCORE.INTRA.POLAR>
0

>  <SCORE.INTRA.POLAR.0>
0

>  <SCORE.INTRA.REPUL>
0

>  <SCORE.INTRA.REPUL.0>
0

>  <SCORE.INTRA.VDW>
-258.633

>  <SCORE.INTRA.VDW.0>
256.497

>  <SCORE.INTRA.norm>
-11.7719

>  <SCORE.RESTR>
0

>  <SCORE.RESTR.CAVITY>
0

>  <SCORE.RESTR.norm>
0

>  <SCORE.SYSTEM>
-6.97538

>  <SCORE.SYSTEM.CONST>
0

>  <SCORE.SYSTEM.DIHEDRAL>
6.66599

>  <SCORE.SYSTEM.POLAR>
-3.95209

>  <SCORE.SYSTEM.REPUL>
0.0320837

>  <SCORE.SYSTEM.VDW>
2.96832

>  <SCORE.SYSTEM.norm>
-0.317063

>  <SCORE.heavy>
22

>  <SCORE.norm>
-12.8481

$$$$
F2256-0251
  rDOCK(R)          3D
libRbt.so/2013.1/901 2013/11/27
 24 26  0  0  0  0  0  0  0  0999 V2000
  -13.2308   18.5870  -17.7714 O   0  0  0  0  0  0
  -14.3866   18.6195  -17.3984 C   0  0  0  0  0  0
  -15.2900   17.5026  -16.9831 C   0  0  0  0  0  0
  -16.4422   18.2996  -16.3766 C   0  0  0  0  0  0
  -16.4960   19.3903  -16.3979 C   0  0  0  0  0  0
  -15.1514   19.7383  -17.2117 N   0  0  0  0  0  0
  -17.9768   20.3699  -15.4644 C   0  0  0  0  0  0
  -19.1884   20.2607  -14.8022 C   0  0  0  0  0  0
  -19.2767   18.9875  -14.7333 C   0  0  0  0  0  0
  -20.4594   18.2307  -14.5896 N   0  0  0  0  0  0
  -21.1420   18.1660  -13.0412 S   0  0  0  0  0  0
  -22.3822   17.4400  -13.2481 O   0  0  0  0  0  0
  -20.1376   17.6099  -12.1594 O   0  0  0  0  0  0
  -21.6083   19.8176  -12.4376 C   0  0  0  0  0  0
  -22.1082   19.9600  -10.9918 C   0  0  0  0  0  0
  -22.6080   21.3521  -10.6001 C   0  0  0  0  0  0
  -21.6103   22.8182  -11.5637 C   0  0  0  0  0  0
  -21.5122   24.4737  -10.3695 C   0  0  0  0  0  0
  -22.4933   24.4961   -8.6272 C   0  0  0  0  0  0
  -23.6945   23.1041   -7.7962 C   0  0  0  0  0  0
  -23.6823   21.3792   -8.9060 C   0  0  0  0  0  0
  -18.1038   18.3614  -15.2838 C   0  0  0  0  0  0
  -14.7749   20.6641  -17.3429 H   0  0  0  0  0  0
  -20.2868   17.2671  -14.8812 H   0  0  0  0  0  0
  1  2  2  0  0  0
  2  3  1  0  0  0
  2  6  1  0  0  0
  3  4  1  0  0  0
  4  5  2  0  0  0
  4 22  1  0  0  0
  5  6  1  0  0  0
  5  7  1  0  0  0
  6 23  1  0  0  0
  7  8  2  0  0  0
  8  9  1  0  0  0
  9 10  1  0  0  0
  9 22  2  0  0  0
 10 11  1  0  0  0
 10 24  1  0  0  0
 11 12  2  0  0  0
 11 13  2  0  0  0
 11 14  1  0  0  0
 14 15  1  0  0  0
 15 16  1  0  0  0
 16 17  2  0  0  0
 16 21  1  0  0  0
 17 18  1  0  0  0
 18 19  2  0  0  0
 19 20  1  0  0  0
 20 21  2  0  0  0
M  END
>  <CHROM.0>
-177.90111450,-73.66801966,75.73870375,67.42222379,-31.02751947,-179.92596819
-155.95350951,-164.24071989

>  <CHROM.1>
-77.53190450,174.77319513,-173.74793197,-174.32852307,-32.38163646,-19.57702944
19.77612046,-13.49332762,-0.59982443,0.60442388,0.42747975

>  <Name>
F2256-0251

>  <RI>
2.8699e+07

>  <Rbt.Current_Directory>
/home/adria/Escritorio/rDock_CMTR_LC/2pxcA_model/inputs_sah

>  <Rbt.Executable>
rbdock ($Id: //depot/dev/client3/rdock/2013.1/src/exe/rbdock.cxx#4 $)

>  <Rbt.Library>
libRbt.so (2013.1, Build901 2013/11/27)

>  <Rbt.Parameter_File>
/home/adria/Escritorio/rDock_2013.1_src/data/scripts/dock.prm

>  <Rbt.Receptor>
sah_rdock.prm

>  <SCORE>
-281.101

>  <SCORE.INTER>
-14.9407

>  <SCORE.INTER.CONST>
1

>  <SCORE.INTER.POLAR>
-1.42053

>  <SCORE.INTER.REPUL>
0.0105696

>  <SCORE.INTER.ROT>
5

>  <SCORE.INTER.VDW>
-20.5638

>  <SCORE.INTER.norm>
-0.679125

>  <SCORE.INTRA>
-258.625

>  <SCORE.INTRA.DIHEDRAL>
-1.63851

>  <SCORE.INTRA.DIHEDRAL.0>
3.37351

>  <SCORE.INTRA.POLAR>
0

>  <SCORE.INTRA.POLAR.0>
0

>  <SCORE.INTRA.REPUL>
0

>  <SCORE.INTRA.REPUL.0>
0

>  <SCORE.INTRA.VDW>
-257.806

>  <SCORE.INTRA.VDW.0>
256.497

>  <SCORE.INTRA.norm>
-11.7557

>  <SCORE.RESTR>
0

>  <SCORE.RESTR.CAVITY>
0

>  <SCORE.RESTR.norm>
0

>  <SCORE.SYSTEM>
-7.5352

>  <SCORE.SYSTEM.CONST>
0

>  <SCORE.SYSTEM.DIHEDRAL>
6.75919

>  <SCORE.SYSTEM.POLAR>
-4.12704

>  <SCORE.SYSTEM.REPUL>
0.0397066

>  <SCORE.SYSTEM.VDW>
2.91863

>  <SCORE.SYSTEM.norm>
-0.342509

>  <SCORE.heavy>
22

>  <SCORE.norm>
-12.7773

$$$$
F2256-0251
  rDOCK(R)          3D
libRbt.so/2013.1/901 2013/11/27
 24 26  0  0  0  0  0  0  0  0999 V2000
  -21.8414   26.9690  -11.3815 O   0  0  0  0  0  0
  -21.5658   25.8249  -11.6835 C   0  0  0  0  0  0
  -20.4790   24.9349  -11.1707 C   0  0  0  0  0  0
  -20.9241   23.5991  -11.7606 C   0  0  0  0  0  0
  -21.7763   23.4936  -12.4355 C   0  0  0  0  0  0
  -22.2460   25.0280  -12.5633 N   0  0  0  0  0  0
  -22.3785   21.6864  -13.0644 C   0  0  0  0  0  0
  -22.0903   20.3327  -13.1159 C   0  0  0  0  0  0
  -21.0539   20.3095  -12.3682 C   0  0  0  0  0  0
  -20.0301   19.3378  -12.3760 N   0  0  0  0  0  0
  -20.0299   18.2379  -13.6635 S   0  0  0  0  0  0
  -19.0500   17.2453  -13.2606 O   0  0  0  0  0  0
  -21.4032   17.8299  -13.8711 O   0  0  0  0  0  0
  -19.3994   18.9895  -15.1956 C   0  0  0  0  0  0
  -18.0232   19.6722  -15.1696 C   0  0  0  0  0  0
  -17.1821   19.5107  -16.4376 C   0  0  0  0  0  0
  -17.6086   17.8009  -17.4215 C   0  0  0  0  0  0
  -15.9294   17.1237  -18.3691 C   0  0  0  0  0  0
  -14.2703   18.2399  -18.3602 C   0  0  0  0  0  0
  -13.9418   20.0703  -17.5773 C   0  0  0  0  0  0
  -15.5659   20.6980  -16.4932 C   0  0  0  0  0  0
  -20.7795   21.6159  -11.8311 C   0  0  0  0  0  0
  -23.0895   25.3415  -13.0173 H   0  0  0  0  0  0
  -20.0713   18.7903  -11.5146 H   0  0  0  0  0  0
  1  2  2  0  0  0
  2  3  1  0  0  0
  2  6  1  0  0  0
  3  4  1  0  0  0
  4  5  2  0  0  0
  4 22  1  0  0  0
  5  6  1  0  0  0
  5  7  1  0  0  0
  6 23  1  0  0  0
  7  8  2  0  0  0
  8  9  1  0  0  0
  9 10  1  0  0  0
  9 22  2  0  0  0
 10 11  1  0  0  0
 10 24  1  0  0  0
 11 12  2  0  0  0
 11 13  2  0  0  0
 11 14  1  0  0  0
 14 15  1  0  0  0
 15 16  1  0  0  0
 16 17  2  0  0  0
 16 21  1  0  0  0
 17 18  1  0  0  0
 18 19  2  0  0  0
 19 20  1  0  0  0
 20 21  2  0  0  0
M  END
>  <CHROM.0>
175.65589676,-75.89900908,73.12146761,-144.89271609,168.28304399,-58.92661577
-36.55082675,-164.94592383

>  <CHROM.1>
10.95456591,-169.58256398,53.90016062,143.68264175,-28.14497766,-19.51440593
20.67422685,-14.00634931,-2.34303663,-0.65083826,-2.98145750

>  <Name>
F2256-0251

>  <RI>
2.8699e+07

>  <Rbt.Current_Directory>
/home/adria/Escritorio/rDock_CMTR_LC/2pxcA_model/inputs_sah

>  <Rbt.Executable>
rbdock ($Id: //depot/dev/client3/rdock/2013.1/src/exe/rbdock.cxx#4 $)

>  <Rbt.Library>
libRbt.so (2013.1, Build901 2013/11/27)

>  <Rbt.Parameter_File>
/home/adria/Escritorio/rDock_2013.1_src/data/scripts/dock.prm

>  <Rbt.Receptor>
sah_rdock.prm

>  <SCORE>
-273.756

>  <SCORE.INTER>
-18.4815

>  <SCORE.INTER.CONST>
1

>  <SCORE.INTER.POLAR>
-2.01278

>  <SCORE.INTER.REPUL>
0.0543913

>  <SCORE.INTER.ROT>
5

>  <SCORE.INTER.VDW>
-22.31

>  <SCORE.INTER.norm>
-0.84007

>  <SCORE.INTRA>
-256.192

>  <SCORE.INTRA.DIHEDRAL>
2.0201

>  <SCORE.INTRA.DIHEDRAL.0>
3.37351

>  <SCORE.INTRA.POLAR>
0

>  <SCORE.INTRA.POLAR.0>
0

>  <SCORE.INTRA.REPUL>
0

>  <SCORE.INTRA.REPUL.0>
0

>  <SCORE.INTRA.VDW>
-257.202

>  <SCORE.INTRA.VDW.0>
256.497

>  <SCORE.INTRA.norm>
-11.6451

>  <SCORE.RESTR>
0

>  <SCORE.RESTR.CAVITY>
0

>  <SCORE.RESTR.norm>
0

>  <SCORE.SYSTEM>
0.917798

>  <SCORE.SYSTEM.CONST>
0

>  <SCORE.SYSTEM.DIHEDRAL>
8.40728

>  <SCORE.SYSTEM.POLAR>
-4.01043

>  <SCORE.SYSTEM.REPUL>
0.0432964

>  <SCORE.SYSTEM.VDW>
10.1331

>  <SCORE.SYSTEM.norm>
0.0417181

>  <SCORE.heavy>
22

>  <SCORE.norm>
-12.4434

$$$$
F2256-0251
  rDOCK(R)          3D
libRbt.so/2013.1/901 2013/11/27
 24 26  0  0  0  0  0  0  0  0999 V2000
  -20.7237   26.8616  -10.6528 O   0  0  0  0  0  0
  -20.8451   25.7006  -10.9896 C   0  0  0  0  0  0
  -21.7479   25.0905  -12.0138 C   0  0  0  0  0  0
  -21.1498   23.6886  -12.0990 C   0  0  0  0  0  0
  -20.3405   23.3395  -11.4539 C   0  0  0  0  0  0
  -20.1162   24.6382  -10.5295 N   0  0  0  0  0  0
  -19.5195   21.5279  -11.7150 C   0  0  0  0  0  0
  -19.6044   20.3116  -12.3719 C   0  0  0  0  0  0
  -20.5710   20.5691  -13.1676 C   0  0  0  0  0  0
  -21.4356   19.6331  -13.7747 N   0  0  0  0  0  0
  -20.7961   18.0985  -14.0965 S   0  0  0  0  0  0
  -20.4533   17.5918  -12.7798 O   0  0  0  0  0  0
  -21.7766   17.3902  -14.8918 O   0  0  0  0  0  0
  -19.2380   18.1968  -15.0305 C   0  0  0  0  0  0
  -19.2860   18.6455  -16.4991 C   0  0  0  0  0  0
  -17.9269   18.8483  -17.1721 C   0  0  0  0  0  0
  -17.3900   17.2609  -18.2970 C   0  0  0  0  0  0
  -15.3546   17.0776  -18.2885 C   0  0  0  0  0  0
  -14.2388   18.4801  -17.4016 C   0  0  0  0  0  0
  -14.7905   20.1962  -16.4952 C   0  0  0  0  0  0
  -16.8334   20.3212  -16.3600 C   0  0  0  0  0  0
  -21.0001   21.9355  -13.0282 C   0  0  0  0  0  0
  -19.3628   24.7595   -9.8710 H   0  0  0  0  0  0
  -21.7765   20.0074  -14.6619 H   0  0  0  0  0  0
  1  2  2  0  0  0
  2  3  1  0  0  0
  2  6  1  0  0  0
  3  4  1  0  0  0
  4  5  2  0  0  0
  4 22  1  0  0  0
  5  6  1  0  0  0
  5  7  1  0  0  0
  6 23  1  0  0  0
  7  8  2  0  0  0
  8  9  1  0  0  0
  9 10  1  0  0  0
  9 22  2  0  0  0
 10 11  1  0  0  0
 10 24  1  0  0  0
 11 12  2  0  0  0
 11 13  2  0  0  0
 11 14  1  0  0  0
 14 15  1  0  0  0
 15 16  1  0  0  0
 16 17  2  0  0  0
 16 21  1  0  0  0
 17 18  1  0  0  0
 18 19  2  0  0  0
 19 20  1  0  0  0
 20 21  2  0  0  0
M  END
>  <CHROM.0>
-60.26062484,66.07462671,73.01913325,-148.72363059,-29.85777064,-61.14228768
-36.85032362,-161.62390479

>  <CHROM.1>
-30.02874550,61.91494708,-70.39061356,173.68173521,99.08854283,-19.47085408
20.53276550,-14.01540780,-2.03357926,-0.53663623,-2.68983031

>  <Name>
F2256-0251

>  <RI>
2.8699e+07

>  <Rbt.Current_Directory>
/home/adria/Escritorio/rDock_CMTR_LC/2pxcA_model/inputs_sah

>  <Rbt.Executable>
rbdock ($Id: //depot/dev/client3/rdock/2013.1/src/exe/rbdock.cxx#4 $)

>  <Rbt.Library>
libRbt.so (2013.1, Build901 2013/11/27)

>  <Rbt.Parameter_File>
/home/adria/Escritorio/rDock_2013.1_src/data/scripts/dock.prm

>  <Rbt.Receptor>
sah_rdock.prm

>  <SCORE>
-280.915

>  <SCORE.INTER>
-18.1579

>  <SCORE.INTER.CONST>
1

>  <SCORE.INTER.POLAR>
-1.96981

>  <SCORE.INTER.REPUL>
0.0945597

>  <SCORE.INTER.ROT>
5

>  <SCORE.INTER.VDW>
-22.3333

>  <SCORE.INTER.norm>
-0.825357

>  <SCORE.INTRA>
-258.725

>  <SCORE.INTRA.DIHEDRAL>
-1.28241

>  <SCORE.INTRA.DIHEDRAL.0>
3.37351

>  <SCORE.INTRA.POLAR>
0

>  <SCORE.INTRA.POLAR.0>
0

>  <SCORE.INTRA.REPUL>
0

>  <SCORE.INTRA.REPUL.0>
0

>  <SCORE.INTRA.VDW>
-258.084

>  <SCORE.INTRA.VDW.0>
256.497

>  <SCORE.INTRA.norm>
-11.7602

>  <SCORE.RESTR>
0

>  <SCORE.RESTR.CAVITY>
0

>  <SCORE.RESTR.norm>
0

>  <SCORE.SYSTEM>
-4.03202

>  <SCORE.SYSTEM.CONST>
0

>  <SCORE.SYSTEM.DIHEDRAL>
9.69884

>  <SCORE.SYSTEM.POLAR>
-3.7761

>  <SCORE.SYSTEM.VDW>
3.95731

>  <SCORE.SYSTEM.norm>
-0.183273

>  <SCORE.heavy>
22

>  <SCORE.norm>
-12.7689

$$$$
F2256-0251
  rDOCK(R)          3D
libRbt.so/2013.1/901 2013/11/27
 24 26  0  0  0  0  0  0  0  0999 V2000
  -24.5246   19.4376   -7.5021 O   0  0  0  0  0  0
  -24.0699   19.6016   -8.6168 C   0  0  0  0  0  0
  -23.3736   20.7888   -9.2014 C   0  0  0  0  0  0
  -22.8379   20.1775  -10.4936 C   0  0  0  0  0  0
  -23.0641   19.1588  -10.8162 C   0  0  0  0  0  0
  -24.0388   18.6803   -9.6278 N   0  0  0  0  0  0
  -22.2163   18.3837  -12.4607 C   0  0  0  0  0  0
  -21.4468   18.6355  -13.5845 C   0  0  0  0  0  0
  -21.1273   19.8511  -13.3528 C   0  0  0  0  0  0
  -20.7426   20.8183  -14.3062 N   0  0  0  0  0  0
  -19.0806   21.0660  -14.5160 S   0  0  0  0  0  0
  -19.0030   22.4198  -15.0348 O   0  0  0  0  0  0
  -18.4444   20.7569  -13.2529 O   0  0  0  0  0  0
  -18.3922   19.9820  -15.8046 C   0  0  0  0  0  0
  -16.9183   20.1542  -16.2027 C   0  0  0  0  0  0
  -16.3439   19.0553  -17.0992 C   0  0  0  0  0  0
  -17.7838   18.0700  -18.1136 C   0  0  0  0  0  0
  -17.2063   16.1314  -18.4051 C   0  0  0  0  0  0
  -15.3699   15.5543  -17.8639 C   0  0  0  0  0  0
  -13.8525   16.6254  -17.0756 C   0  0  0  0  0  0
  -14.4631   18.5334  -16.6355 C   0  0  0  0  0  0
  -21.6428   20.2836  -12.0809 C   0  0  0  0  0  0
  -24.3764   17.7397   -9.4965 H   0  0  0  0  0  0
  -21.1513   21.7218  -14.0613 H   0  0  0  0  0  0
  1  2  2  0  0  0
  2  3  1  0  0  0
  2  6  1  0  0  0
  3  4  1  0  0  0
  4  5  2  0  0  0
  4 22  1  0  0  0
  5  6  1  0  0  0
  5  7  1  0  0  0
  6 23  1  0  0  0
  7  8  2  0  0  0
  8  9  1  0  0  0
  9 10  1  0  0  0
  9 22  2  0  0  0
 10 11  1  0  0  0
 10 24  1  0  0  0
 11 12  2  0  0  0
 11 13  2  0  0  0
 11 14  1  0  0  0
 14 15  1  0  0  0
 15 16  1  0  0  0
 16 17  2  0  0  0
 16 21  1  0  0  0
 17 18  1  0  0  0
 18 19  2  0  0  0
 19 20  1  0  0  0
 20 21  2  0  0  0
M  END
>  <CHROM.0>
-58.86889643,67.45665034,-129.71680856,66.20851044,168.50250757,-55.61791442
-156.08029042,-156.46482973

>  <CHROM.1>
-97.41768140,-155.50110462,175.18659851,169.39884067,22.53149874,-19.80093527
19.44372730,-13.72886308,2.97146002,0.79063626,0.02088187

>  <Name>
F2256-0251

>  <RI>
2.8699e+07

>  <Rbt.Current_Directory>
/home/adria/Escritorio/rDock_CMTR_LC/2pxcA_model/inputs_sah

>  <Rbt.Executable>
rbdock ($Id: //depot/dev/client3/rdock/2013.1/src/exe/rbdock.cxx#4 $)

>  <Rbt.Library>
libRbt.so (2013.1, Build901 2013/11/27)

>  <Rbt.Parameter_File>
/home/adria/Escritorio/rDock_2013.1_src/data/scripts/dock.prm

>  <Rbt.Receptor>
sah_rdock.prm

>  <SCORE>
-269.088

>  <SCORE.INTER>
-9.04625

>  <SCORE.INTER.CONST>
1

>  <SCORE.INTER.POLAR>
0

>  <SCORE.INTER.REPUL>
0

>  <SCORE.INTER.ROT>
5

>  <SCORE.INTER.VDW>
-19.4463

>  <SCORE.INTER.norm>
-0.411193

>  <SCORE.INTRA>
-258.164

>  <SCORE.INTRA.DIHEDRAL>
-1.04703

>  <SCORE.INTRA.DIHEDRAL.0>
3.37351

>  <SCORE.INTRA.POLAR>
0

>  <SCORE.INTRA.POLAR.0>
0

>  <SCORE.INTRA.REPUL>
0

>  <SCORE.INTRA.REPUL.0>
0

>  <SCORE.INTRA.VDW>
-257.641

>  <SCORE.INTRA.VDW.0>
256.497

>  <SCORE.INTRA.norm>
-11.7347

>  <SCORE.RESTR>
0

>  <SCORE.RESTR.CAVITY>
0

>  <SCORE.RESTR.norm>
0

>  <SCORE.SYSTEM>
-1.87749

>  <SCORE.SYSTEM.CONST>
0

>  <SCORE.SYSTEM.DIHEDRAL>
6.52037

>  <SCORE.SYSTEM.POLAR>
-4.19764

>  <SCORE.SYSTEM.VDW>
9.13432

>  <SCORE.SYSTEM.norm>
-0.0853403

>  <SCORE.heavy>
22

>  <SCORE.norm>
-12.2313

$$$$
F2256-0251
  rDOCK(R)          3D
libRbt.so/2013.1/901 2013/11/27
 24 26  0  0  0  0  0  0  0  0999 V2000
  -14.5274   12.5983  -19.1494 O   0  0  0  0  0  0
  -14.8047   13.7396  -18.8385 C   0  0  0  0  0  0
  -15.6183   14.2485  -17.6917 C   0  0  0  0  0  0
  -15.2871   15.7369  -17.7661 C   0  0  0  0  0  0
  -14.6788   16.1790  -18.5582 C   0  0  0  0  0  0
  -14.3760   14.8805  -19.4602 N   0  0  0  0  0  0
  -14.1786   18.1212  -18.5147 C   0  0  0  0  0  0
  -14.3766   19.3452  -17.8976 C   0  0  0  0  0  0
  -15.1287   18.9754  -16.9326 C   0  0  0  0  0  0
  -16.0371   19.7824  -16.2144 N   0  0  0  0  0  0
  -17.6776   19.6151  -16.5993 S   0  0  0  0  0  0
  -17.7998   20.3087  -17.8689 O   0  0  0  0  0  0
  -17.9849   18.2019  -16.5349 O   0  0  0  0  0  0
  -18.7429   20.5050  -15.4233 C   0  0  0  0  0  0
  -18.7457   20.0639  -13.9517 C   0  0  0  0  0  0
  -19.7709   20.7615  -13.0553 C   0  0  0  0  0  0
  -20.8077   19.4520  -11.9224 C   0  0  0  0  0  0
  -22.6929   20.1728  -11.6014 C   0  0  0  0  0  0
  -23.1709   22.0086  -12.2338 C   0  0  0  0  0  0
  -22.0351   23.4028  -13.1487 C   0  0  0  0  0  0
  -20.1881   22.6424  -13.6149 C   0  0  0  0  0  0
  -15.3121   17.5482  -16.9431 C   0  0  0  0  0  0
  -13.7362   14.8500  -20.2384 H   0  0  0  0  0  0
  -15.7978   20.7668  -16.3452 H   0  0  0  0  0  0
  1  2  2  0  0  0
  2  3  1  0  0  0
  2  6  1  0  0  0
  3  4  1  0  0  0
  4  5  2  0  0  0
  4 22  1  0  0  0
  5  6  1  0  0  0
  5  7  1  0  0  0
  6 23  1  0  0  0
  7  8  2  0  0  0
  8  9  1  0  0  0
  9 10  1  0  0  0
  9 22  2  0  0  0
 10 11  1  0  0  0
 10 24  1  0  0  0
 11 12  2  0  0  0
 11 13  2  0  0  0
 11 14  1  0  0  0
 14 15  1  0  0  0
 15 16  1  0  0  0
 16 17  2  0  0  0
 16 21  1  0  0  0
 17 18  1  0  0  0
 18 19  2  0  0  0
 19 20  1  0  0  0
 20 21  2  0  0  0
M  END
>  <CHROM.0>
-178.40522392,-167.78299424,108.55153665,-60.12788997,-30.46714466,57.94027606
-156.48458302,-161.85516263

>  <CHROM.1>
102.70184123,-75.11963847,-63.28431430,-173.89785652,132.28647471,-17.44167985
18.58758268,-16.17413696,0.63337436,-0.70468353,-3.13010201

>  <Name>
F2256-0251

>  <RI>
2.8699e+07

>  <Rbt.Current_Directory>
/home/adria/Escritorio/rDock_CMTR_LC/2pxcA_model/inputs_sah

>  <Rbt.Executable>
rbdock ($Id: //depot/dev/client3/rdock/2013.1/src/exe/rbdock.cxx#4 $)

>  <Rbt.Library>
libRbt.so (2013.1, Build901 2013/11/27)

>  <Rbt.Parameter_File>
/home/adria/Escritorio/rDock_2013.1_src/data/scripts/dock.prm

>  <Rbt.Receptor>
sah_rdock.prm

>  <SCORE>
-283.801

>  <SCORE.INTER>
-19.1745

>  <SCORE.INTER.CONST>
1

>  <SCORE.INTER.POLAR>
-1.74906

>  <SCORE.INTER.REPUL>
0

>  <SCORE.INTER.ROT>
5

>  <SCORE.INTER.VDW>
-23.6277

>  <SCORE.INTER.norm>
-0.871567

>  <SCORE.INTRA>
-258.87

>  <SCORE.INTRA.DIHEDRAL>
-2.00874

>  <SCORE.INTRA.DIHEDRAL.0>
3.37351

>  <SCORE.INTRA.POLAR>
0

>  <SCORE.INTRA.POLAR.0>
0

>  <SCORE.INTRA.REPUL>
0

>  <SCORE.INTRA.REPUL.0>
0

>  <SCORE.INTRA.VDW>
-257.866

>  <SCORE.INTRA.VDW.0>
256.497

>  <SCORE.INTRA.norm>
-11.7668

>  <SCORE.RESTR>
0

>  <SCORE.RESTR.CAVITY>
0

>  <SCORE.RESTR.norm>
0

>  <SCORE.SYSTEM>
-5.75598

>  <SCORE.SYSTEM.CONST>
0

>  <SCORE.SYSTEM.DIHEDRAL>
9.199

>  <SCORE.SYSTEM.POLAR>
-4.30197

>  <SCORE.SYSTEM.VDW>
4.27123

>  <SCORE.SYSTEM.norm>
-0.261635

>  <SCORE.heavy>
22

>  <SCORE.norm>
-12.9

$$$$
