F3008-0038
  rDOCK(R)          3D
libRbt.so/2013.1/901 2013/11/27
 33 37  0  0  0  0  0  0  0  0999 V2000
  -18.8907   16.1768  -17.5756 O   0  0  0  0  0  0
  -18.3342   16.4182  -16.4801 C   0  0  0  0  0  0
  -19.2485   16.7753  -14.9368 C   0  0  0  0  0  0
  -20.1064   17.8908  -14.2935 O   0  0  0  0  0  0
  -20.9718   18.2878  -13.2518 C   0  0  0  0  0  0
  -21.0745   19.4430  -12.3677 C   0  0  0  0  0  0
  -21.9978   19.5250  -11.2909 C   0  0  0  0  0  0
  -22.9086   18.5251  -11.0610 C   0  0  0  0  0  0
  -22.9216   17.4459  -11.9321 C   0  0  0  0  0  0
  -21.9760   17.3266  -12.9908 C   0  0  0  0  0  0
  -20.2529   20.7230  -12.4319 C   0  0  0  0  0  0
  -18.9224   20.5344  -13.1867 C   0  0  0  0  0  0
  -19.4486   20.4331  -14.5615 C   0  0  0  0  0  0
  -20.6436   20.9527  -14.6228 N   0  0  0  0  0  0
  -21.0197   21.5132  -13.2829 N   0  0  0  0  0  0
  -22.2768   22.2322  -12.9436 C   0  0  0  0  0  0
  -23.3990   21.8008  -12.7574 O   0  0  0  0  0  0
  -22.3402   23.7086  -12.8260 C   0  0  0  0  0  0
  -21.4370   24.4499  -12.1215 C   0  0  0  0  0  0
  -21.6754   25.8040  -11.8829 C   0  0  0  0  0  0
  -22.8791   26.3992  -12.2743 C   0  0  0  0  0  0
  -23.8564   25.6501  -12.9117 C   0  0  0  0  0  0
  -23.5947   24.3104  -13.1965 C   0  0  0  0  0  0
  -18.7527   19.9529  -15.7429 C   0  0  0  0  0  0
  -19.2229   19.8170  -17.0479 C   0  0  0  0  0  0
  -18.1958   19.4742  -17.9820 C   0  0  0  0  0  0
  -16.9839   19.2862  -17.3589 C   0  0  0  0  0  0
  -17.0918   19.5295  -15.6673 S   0  0  0  0  0  0
  -17.0071   16.3134  -16.7690 N   0  0  0  0  0  0
  -16.7601   16.0011  -18.2028 C   0  0  0  0  0  0
  -15.3033   15.7388  -18.3492 C   0  0  0  0  0  0
  -14.7505   16.5632  -17.1985 C   0  0  0  0  0  0
  -15.7703   16.3786  -16.0563 C   0  0  0  0  0  0
  1  2  2  0  0  0
  2  3  1  0  0  0
  2 29  1  0  0  0
  3  4  1  0  0  0
  4  5  1  0  0  0
  5  6  2  0  0  0
  5 10  1  0  0  0
  6  7  1  0  0  0
  6 11  1  0  0  0
  7  8  2  0  0  0
  8  9  1  0  0  0
  9 10  2  0  0  0
 11 12  1  0  0  0
 11 15  1  0  0  0
 12 13  1  0  0  0
 13 14  2  0  0  0
 13 24  1  0  0  0
 14 15  1  0  0  0
 15 16  1  0  0  0
 16 17  2  0  0  0
 16 18  1  0  0  0
 18 19  2  0  0  0
 18 23  1  0  0  0
 19 20  1  0  0  0
 20 21  2  0  0  0
 21 22  1  0  0  0
 22 23  2  0  0  0
 24 25  2  0  0  0
 24 28  1  0  0  0
 25 26  1  0  0  0
 26 27  2  0  0  0
 27 28  1  0  0  0
 29 30  1  0  0  0
 29 33  1  0  0  0
 30 31  1  0  0  0
 31 32  1  0  0  0
 32 33  1  0  0  0
M  END
>  <CHROM.0>
-60.01831236,-166.51974151,-8.36556493,-60.85610296,168.38505243,178.99378895
-157.65569992,-163.56825474

>  <CHROM.1>
-71.46250769,169.05613257,133.84631221,-21.50456159,178.54136270,-73.59465669
-47.42851586,-19.84336403,19.77969274,-14.50603368,0.68170301,-0.72999195
3.07214900

>  <Name>
F3008-0038

>  <RI>
3.96271e+07

>  <Rbt.Current_Directory>
/home/adria/Escritorio/rDock_CMTR_LC/2pxcA_model/inputs_sah

>  <Rbt.Executable>
rbdock ($Id: //depot/dev/client3/rdock/2013.1/src/exe/rbdock.cxx#4 $)

>  <Rbt.Library>
libRbt.so (2013.1, Build901 2013/11/27)

>  <Rbt.Parameter_File>
/home/adria/Escritorio/rDock_2013.1_src/data/scripts/dock.prm

>  <Rbt.Receptor>
sah_rdock.prm

>  <SCORE>
-54.0549

>  <SCORE.INTER>
-19.0902

>  <SCORE.INTER.CONST>
1

>  <SCORE.INTER.POLAR>
0

>  <SCORE.INTER.REPUL>
0.0581669

>  <SCORE.INTER.ROT>
7

>  <SCORE.INTER.VDW>
-31.781

>  <SCORE.INTER.norm>
-0.57849

>  <SCORE.INTRA>
-33.7227

>  <SCORE.INTRA.DIHEDRAL>
-5.00833

>  <SCORE.INTRA.DIHEDRAL.0>
15.7959

>  <SCORE.INTRA.POLAR>
0

>  <SCORE.INTRA.POLAR.0>
0

>  <SCORE.INTRA.REPUL>
0

>  <SCORE.INTRA.REPUL.0>
0

>  <SCORE.INTRA.VDW>
-31.2185

>  <SCORE.INTRA.VDW.0>
25.9494

>  <SCORE.INTRA.norm>
-1.0219

>  <SCORE.RESTR>
0

>  <SCORE.RESTR.CAVITY>
0

>  <SCORE.RESTR.norm>
0

>  <SCORE.SYSTEM>
-1.24209

>  <SCORE.SYSTEM.CONST>
0

>  <SCORE.SYSTEM.DIHEDRAL>
6.42359

>  <SCORE.SYSTEM.POLAR>
-4.24421

>  <SCORE.SYSTEM.VDW>
9.97642

>  <SCORE.SYSTEM.norm>
-0.0376391

>  <SCORE.heavy>
33

>  <SCORE.norm>
-1.63803

$$$$
F3008-0038
  rDOCK(R)          3D
libRbt.so/2013.1/901 2013/11/27
 33 37  0  0  0  0  0  0  0  0999 V2000
  -18.9091   15.2194  -17.0200 O   0  0  0  0  0  0
  -18.7717   15.4984  -15.8070 C   0  0  0  0  0  0
  -18.8834   17.1976  -15.1396 C   0  0  0  0  0  0
  -19.9080   18.1520  -14.4812 O   0  0  0  0  0  0
  -20.6933   18.4756  -13.3542 C   0  0  0  0  0  0
  -20.6238   19.4677  -12.2877 C   0  0  0  0  0  0
  -21.5082   19.4850  -11.1758 C   0  0  0  0  0  0
  -22.5409   18.5872  -11.0780 C   0  0  0  0  0  0
  -22.7145   17.6820  -12.1145 C   0  0  0  0  0  0
  -21.8128   17.6224  -13.2156 C   0  0  0  0  0  0
  -19.6388   20.6228  -12.1722 C   0  0  0  0  0  0
  -18.3500   20.3841  -12.9831 C   0  0  0  0  0  0
  -18.8932   20.5730  -14.3420 C   0  0  0  0  0  0
  -20.0083   21.2478  -14.2884 N   0  0  0  0  0  0
  -20.2982   21.6320  -12.8673 N   0  0  0  0  0  0
  -21.4458   22.4463  -12.3853 C   0  0  0  0  0  0
  -22.6336   22.3448  -12.6278 O   0  0  0  0  0  0
  -21.2683   23.6257  -11.5050 C   0  0  0  0  0  0
  -20.0546   24.1796  -11.2193 C   0  0  0  0  0  0
  -19.9444   25.1524  -10.2249 C   0  0  0  0  0  0
  -21.0489   25.5054   -9.4427 C   0  0  0  0  0  0
  -22.2765   24.8941   -9.6474 C   0  0  0  0  0  0
  -22.3974   23.9609  -10.6765 C   0  0  0  0  0  0
  -18.2748   20.2001  -15.6026 C   0  0  0  0  0  0
  -16.9707   19.7764  -15.8527 C   0  0  0  0  0  0
  -16.7734   19.3301  -17.1968 C   0  0  0  0  0  0
  -17.9081   19.4908  -17.9578 C   0  0  0  0  0  0
  -19.1939   20.1665  -17.0509 S   0  0  0  0  0  0
  -18.5685   14.2842  -15.2237 N   0  0  0  0  0  0
  -18.5601   13.1724  -16.2127 C   0  0  0  0  0  0
  -18.5103   11.9012  -15.4420 C   0  0  0  0  0  0
  -17.8214   12.3680  -14.1706 C   0  0  0  0  0  0
  -18.4020   13.7711  -13.9005 C   0  0  0  0  0  0
  1  2  2  0  0  0
  2  3  1  0  0  0
  2 29  1  0  0  0
  3  4  1  0  0  0
  4  5  1  0  0  0
  5  6  2  0  0  0
  5 10  1  0  0  0
  6  7  1  0  0  0
  6 11  1  0  0  0
  7  8  2  0  0  0
  8  9  1  0  0  0
  9 10  2  0  0  0
 11 12  1  0  0  0
 11 15  1  0  0  0
 12 13  1  0  0  0
 13 14  2  0  0  0
 13 24  1  0  0  0
 14 15  1  0  0  0
 15 16  1  0  0  0
 16 17  2  0  0  0
 16 18  1  0  0  0
 18 19  2  0  0  0
 18 23  1  0  0  0
 19 20  1  0  0  0
 20 21  2  0  0  0
 21 22  1  0  0  0
 22 23  2  0  0  0
 24 25  2  0  0  0
 24 28  1  0  0  0
 25 26  1  0  0  0
 26 27  2  0  0  0
 27 28  1  0  0  0
 29 30  1  0  0  0
 29 33  1  0  0  0
 30 31  1  0  0  0
 31 32  1  0  0  0
 32 33  1  0  0  0
M  END
>  <CHROM.0>
-176.34467289,-72.26628909,-130.12816479,-59.97779708,168.08401187,-179.66338355
82.84384790,-164.48760155

>  <CHROM.1>
95.52828163,70.08675114,104.58224873,-22.40868946,-10.88229105,-100.85818729
9.77339565,-19.82842252,19.29250627,-13.77767969,-1.07037663,0.98574293,0.04947010

>  <Name>
F3008-0038

>  <RI>
3.96271e+07

>  <Rbt.Current_Directory>
/home/adria/Escritorio/rDock_CMTR_LC/2pxcA_model/inputs_sah

>  <Rbt.Executable>
rbdock ($Id: //depot/dev/client3/rdock/2013.1/src/exe/rbdock.cxx#4 $)

>  <Rbt.Library>
libRbt.so (2013.1, Build901 2013/11/27)

>  <Rbt.Parameter_File>
/home/adria/Escritorio/rDock_2013.1_src/data/scripts/dock.prm

>  <Rbt.Receptor>
sah_rdock.prm

>  <SCORE>
-52.3645

>  <SCORE.INTER>
-18.815

>  <SCORE.INTER.CONST>
1

>  <SCORE.INTER.POLAR>
0

>  <SCORE.INTER.REPUL>
0.259226

>  <SCORE.INTER.ROT>
7

>  <SCORE.INTER.VDW>
-32.5111

>  <SCORE.INTER.norm>
-0.570151

>  <SCORE.INTRA>
-32.0072

>  <SCORE.INTRA.DIHEDRAL>
-5.99309

>  <SCORE.INTRA.DIHEDRAL.0>
15.7959

>  <SCORE.INTRA.POLAR>
0

>  <SCORE.INTRA.POLAR.0>
0

>  <SCORE.INTRA.REPUL>
0

>  <SCORE.INTRA.REPUL.0>
0

>  <SCORE.INTRA.VDW>
-29.0107

>  <SCORE.INTRA.VDW.0>
25.9494

>  <SCORE.INTRA.norm>
-0.969917

>  <SCORE.RESTR>
0

>  <SCORE.RESTR.CAVITY>
0

>  <SCORE.RESTR.norm>
0

>  <SCORE.SYSTEM>
-1.54228

>  <SCORE.SYSTEM.CONST>
0

>  <SCORE.SYSTEM.DIHEDRAL>
6.29903

>  <SCORE.SYSTEM.POLAR>
-4.36753

>  <SCORE.SYSTEM.REPUL>
0.037199

>  <SCORE.SYSTEM.VDW>
9.97181

>  <SCORE.SYSTEM.norm>
-0.0467357

>  <SCORE.heavy>
33

>  <SCORE.norm>
-1.5868

$$$$
F3008-0038
  rDOCK(R)          3D
libRbt.so/2013.1/901 2013/11/27
 33 37  0  0  0  0  0  0  0  0999 V2000
  -22.3363   24.9364  -13.4099 O   0  0  0  0  0  0
  -21.9685   23.9744  -12.6976 C   0  0  0  0  0  0
  -21.9006   22.2447  -13.2882 C   0  0  0  0  0  0
  -22.6606   20.9054  -13.1370 O   0  0  0  0  0  0
  -23.8635   20.1847  -13.2960 C   0  0  0  0  0  0
  -24.3248   18.8429  -12.9593 C   0  0  0  0  0  0
  -25.5841   18.3237  -13.3633 C   0  0  0  0  0  0
  -26.4821   19.0991  -14.0521 C   0  0  0  0  0  0
  -26.1354   20.4163  -14.3143 C   0  0  0  0  0  0
  -24.8609   20.9410  -13.9545 C   0  0  0  0  0  0
  -23.5802   17.7947  -12.1440 C   0  0  0  0  0  0
  -22.6421   16.9298  -13.0085 C   0  0  0  0  0  0
  -21.5864   17.9263  -13.2724 C   0  0  0  0  0  0
  -21.6382   18.8795  -12.3833 N   0  0  0  0  0  0
  -22.7182   18.5810  -11.3855 N   0  0  0  0  0  0
  -23.0682   19.3915  -10.1885 C   0  0  0  0  0  0
  -22.7009   19.2808   -9.0340 O   0  0  0  0  0  0
  -24.0374   20.5119  -10.2438 C   0  0  0  0  0  0
  -25.3338   20.3704  -10.6449 C   0  0  0  0  0  0
  -26.1253   21.4976  -10.8694 C   0  0  0  0  0  0
  -25.5817   22.7834  -10.7819 C   0  0  0  0  0  0
  -24.2431   22.9582  -10.4654 C   0  0  0  0  0  0
  -23.4671   21.8330  -10.1896 C   0  0  0  0  0  0
  -20.5372   17.8603  -14.2751 C   0  0  0  0  0  0
  -20.4816   17.1022  -15.4434 C   0  0  0  0  0  0
  -19.3636   17.4298  -16.2726 C   0  0  0  0  0  0
  -18.5552   18.3757  -15.6860 C   0  0  0  0  0  0
  -19.1497   18.8624  -14.1556 S   0  0  0  0  0  0
  -21.6516   24.5623  -11.5103 N   0  0  0  0  0  0
  -21.8862   26.0317  -11.5227 C   0  0  0  0  0  0
  -21.3405   26.5731  -10.2493 C   0  0  0  0  0  0
  -21.4647   25.3558   -9.3482 C   0  0  0  0  0  0
  -21.1073   24.1584  -10.2523 C   0  0  0  0  0  0
  1  2  2  0  0  0
  2  3  1  0  0  0
  2 29  1  0  0  0
  3  4  1  0  0  0
  4  5  1  0  0  0
  5  6  2  0  0  0
  5 10  1  0  0  0
  6  7  1  0  0  0
  6 11  1  0  0  0
  7  8  2  0  0  0
  8  9  1  0  0  0
  9 10  2  0  0  0
 11 12  1  0  0  0
 11 15  1  0  0  0
 12 13  1  0  0  0
 13 14  2  0  0  0
 13 24  1  0  0  0
 14 15  1  0  0  0
 15 16  1  0  0  0
 16 17  2  0  0  0
 16 18  1  0  0  0
 18 19  2  0  0  0
 18 23  1  0  0  0
 19 20  1  0  0  0
 20 21  2  0  0  0
 21 22  1  0  0  0
 22 23  2  0  0  0
 24 25  2  0  0  0
 24 28  1  0  0  0
 25 26  1  0  0  0
 26 27  2  0  0  0
 27 28  1  0  0  0
 29 30  1  0  0  0
 29 33  1  0  0  0
 30 31  1  0  0  0
 31 32  1  0  0  0
 32 33  1  0  0  0
M  END
>  <CHROM.0>
176.40797622,-72.77713396,-165.16173493,-63.28538102,-29.56237761,-59.61473481
-160.33014279,-169.70510755

>  <CHROM.1>
-106.42381342,60.60900509,-175.10790297,-87.13405915,20.87302666,115.80390615
58.61676140,-22.62471228,20.74592839,-12.40335657,-1.77898613,-0.37242624
-2.73534634

>  <Name>
F3008-0038

>  <RI>
3.96271e+07

>  <Rbt.Current_Directory>
/home/adria/Escritorio/rDock_CMTR_LC/2pxcA_model/inputs_sah

>  <Rbt.Executable>
rbdock ($Id: //depot/dev/client3/rdock/2013.1/src/exe/rbdock.cxx#4 $)

>  <Rbt.Library>
libRbt.so (2013.1, Build901 2013/11/27)

>  <Rbt.Parameter_File>
/home/adria/Escritorio/rDock_2013.1_src/data/scripts/dock.prm

>  <Rbt.Receptor>
sah_rdock.prm

>  <SCORE>
-46.6912

>  <SCORE.INTER>
-6.45155

>  <SCORE.INTER.CONST>
1

>  <SCORE.INTER.POLAR>
-1.55728

>  <SCORE.INTER.REPUL>
0.208122

>  <SCORE.INTER.ROT>
7

>  <SCORE.INTER.VDW>
-14.5974

>  <SCORE.INTER.norm>
-0.195502

>  <SCORE.INTRA>
-33.4176

>  <SCORE.INTRA.DIHEDRAL>
-1.52904

>  <SCORE.INTRA.DIHEDRAL.0>
15.7959

>  <SCORE.INTRA.POLAR>
0

>  <SCORE.INTRA.POLAR.0>
0

>  <SCORE.INTRA.REPUL>
0

>  <SCORE.INTRA.REPUL.0>
0

>  <SCORE.INTRA.VDW>
-32.6531

>  <SCORE.INTRA.VDW.0>
25.9494

>  <SCORE.INTRA.norm>
-1.01266

>  <SCORE.RESTR>
0

>  <SCORE.RESTR.CAVITY>
0

>  <SCORE.RESTR.norm>
0

>  <SCORE.SYSTEM>
-6.82202

>  <SCORE.SYSTEM.CONST>
0

>  <SCORE.SYSTEM.DIHEDRAL>
6.1183

>  <SCORE.SYSTEM.POLAR>
-3.86325

>  <SCORE.SYSTEM.REPUL>
0.0381351

>  <SCORE.SYSTEM.VDW>
3.06319

>  <SCORE.SYSTEM.norm>
-0.206728

>  <SCORE.heavy>
33

>  <SCORE.norm>
-1.41488

$$$$
F3008-0038
  rDOCK(R)          3D
libRbt.so/2013.1/901 2013/11/27
 33 37  0  0  0  0  0  0  0  0999 V2000
  -22.5807   24.0562  -13.1190 O   0  0  0  0  0  0
  -21.6394   23.3399  -12.7078 C   0  0  0  0  0  0
  -21.2840   21.6659  -13.3531 C   0  0  0  0  0  0
  -21.4937   20.1786  -12.9817 O   0  0  0  0  0  0
  -22.3185   19.1929  -12.3988 C   0  0  0  0  0  0
  -22.8813   17.9187  -12.8304 C   0  0  0  0  0  0
  -23.8110   17.1718  -12.0581 C   0  0  0  0  0  0
  -24.1872   17.5873  -10.8059 C   0  0  0  0  0  0
  -23.6073   18.7429  -10.3039 C   0  0  0  0  0  0
  -22.7064   19.5269  -11.0802 C   0  0  0  0  0  0
  -22.5882   17.1793  -14.1285 C   0  0  0  0  0  0
  -23.7390   17.2944  -15.1474 C   0  0  0  0  0  0
  -23.5568   18.7039  -15.5440 C   0  0  0  0  0  0
  -22.3473   19.0977  -15.2543 N   0  0  0  0  0  0
  -21.5689   17.9532  -14.6750 N   0  0  0  0  0  0
  -20.1408   17.9722  -14.2600 C   0  0  0  0  0  0
  -19.5678   17.3320  -13.3986 O   0  0  0  0  0  0
  -19.1501   18.8940  -14.8652 C   0  0  0  0  0  0
  -19.4860   19.9328  -15.6836 C   0  0  0  0  0  0
  -18.4947   20.6263  -16.3790 C   0  0  0  0  0  0
  -17.1597   20.2124  -16.3262 C   0  0  0  0  0  0
  -16.7990   19.1039  -15.5754 C   0  0  0  0  0  0
  -17.7825   18.4441  -14.8391 C   0  0  0  0  0  0
  -24.4940   19.5498  -16.2628 C   0  0  0  0  0  0
  -25.5964   20.2523  -15.7790 C   0  0  0  0  0  0
  -26.1822   21.1185  -16.7543 C   0  0  0  0  0  0
  -25.5603   21.0032  -17.9760 C   0  0  0  0  0  0
  -24.2808   19.8659  -17.9356 S   0  0  0  0  0  0
  -21.0329   24.1210  -11.7709 N   0  0  0  0  0  0
  -21.7137   25.4327  -11.5967 C   0  0  0  0  0  0
  -20.8631   26.2507  -10.6913 C   0  0  0  0  0  0
  -20.1619   25.1596   -9.8996 C   0  0  0  0  0  0
  -19.8814   24.0450  -10.9281 C   0  0  0  0  0  0
  1  2  2  0  0  0
  2  3  1  0  0  0
  2 29  1  0  0  0
  3  4  1  0  0  0
  4  5  1  0  0  0
  5  6  2  0  0  0
  5 10  1  0  0  0
  6  7  1  0  0  0
  6 11  1  0  0  0
  7  8  2  0  0  0
  8  9  1  0  0  0
  9 10  2  0  0  0
 11 12  1  0  0  0
 11 15  1  0  0  0
 12 13  1  0  0  0
 13 14  2  0  0  0
 13 24  1  0  0  0
 14 15  1  0  0  0
 15 16  1  0  0  0
 16 17  2  0  0  0
 16 18  1  0  0  0
 18 19  2  0  0  0
 18 23  1  0  0  0
 19 20  1  0  0  0
 20 21  2  0  0  0
 21 22  1  0  0  0
 22 23  2  0  0  0
 24 25  2  0  0  0
 24 28  1  0  0  0
 25 26  1  0  0  0
 26 27  2  0  0  0
 27 28  1  0  0  0
 29 30  1  0  0  0
 29 33  1  0  0  0
 30 31  1  0  0  0
 31 32  1  0  0  0
 32 33  1  0  0  0
M  END
>  <CHROM.0>
179.87091038,-79.19078316,-8.84830200,63.17745570,-30.83335422,62.78259033
-156.65709786,-162.29662122

>  <CHROM.1>
-100.95050566,35.84778208,125.56470538,-104.72883582,81.13255609,0.92765967
10.76558620,-21.85896338,20.31323672,-13.98424527,1.21423889,-0.18557565
0.59766261

>  <Name>
F3008-0038

>  <RI>
3.96271e+07

>  <Rbt.Current_Directory>
/home/adria/Escritorio/rDock_CMTR_LC/2pxcA_model/inputs_sah

>  <Rbt.Executable>
rbdock ($Id: //depot/dev/client3/rdock/2013.1/src/exe/rbdock.cxx#4 $)

>  <Rbt.Library>
libRbt.so (2013.1, Build901 2013/11/27)

>  <Rbt.Parameter_File>
/home/adria/Escritorio/rDock_2013.1_src/data/scripts/dock.prm

>  <Rbt.Receptor>
sah_rdock.prm

>  <SCORE>
-52.1985

>  <SCORE.INTER>
-18.3923

>  <SCORE.INTER.CONST>
1

>  <SCORE.INTER.POLAR>
-0.824621

>  <SCORE.INTER.REPUL>
0

>  <SCORE.INTER.ROT>
7

>  <SCORE.INTER.VDW>
-27.9886

>  <SCORE.INTER.norm>
-0.557344

>  <SCORE.INTRA>
-26.7165

>  <SCORE.INTRA.DIHEDRAL>
4.78287

>  <SCORE.INTRA.DIHEDRAL.0>
15.7959

>  <SCORE.INTRA.POLAR>
0

>  <SCORE.INTRA.POLAR.0>
0

>  <SCORE.INTRA.REPUL>
0

>  <SCORE.INTRA.REPUL.0>
0

>  <SCORE.INTRA.VDW>
-29.1079

>  <SCORE.INTRA.VDW.0>
25.9494

>  <SCORE.INTRA.norm>
-0.809591

>  <SCORE.RESTR>
0.0390184

>  <SCORE.RESTR.CAVITY>
0.0390184

>  <SCORE.RESTR.norm>
0.00118237

>  <SCORE.SYSTEM>
-7.12871

>  <SCORE.SYSTEM.CONST>
0

>  <SCORE.SYSTEM.DIHEDRAL>
10.2209

>  <SCORE.SYSTEM.POLAR>
-4.73355

>  <SCORE.SYSTEM.REPUL>
0.0476682

>  <SCORE.SYSTEM.VDW>
3.61656

>  <SCORE.SYSTEM.norm>
-0.216021

>  <SCORE.heavy>
33

>  <SCORE.norm>
-1.58177

$$$$
F3008-0038
  rDOCK(R)          3D
libRbt.so/2013.1/901 2013/11/27
 33 37  0  0  0  0  0  0  0  0999 V2000
  -23.0675   24.2876  -12.6252 O   0  0  0  0  0  0
  -22.1441   23.4715  -12.4034 C   0  0  0  0  0  0
  -22.1144   21.7695  -13.0724 C   0  0  0  0  0  0
  -21.1083   20.6509  -13.4340 O   0  0  0  0  0  0
  -19.9823   20.2469  -14.1826 C   0  0  0  0  0  0
  -19.2588   18.9964  -14.3811 C   0  0  0  0  0  0
  -18.0449   18.9020  -15.1135 C   0  0  0  0  0  0
  -17.5110   19.9973  -15.7439 C   0  0  0  0  0  0
  -18.2097   21.1932  -15.6708 C   0  0  0  0  0  0
  -19.4052   21.3165  -14.9061 C   0  0  0  0  0  0
  -19.6523   17.6178  -13.8688 C   0  0  0  0  0  0
  -20.9842   17.6332  -13.0932 C   0  0  0  0  0  0
  -21.9099   17.8198  -14.2270 C   0  0  0  0  0  0
  -21.3301   17.4671  -15.3411 N   0  0  0  0  0  0
  -19.9526   16.9479  -15.0509 N   0  0  0  0  0  0
  -18.9845   16.4017  -16.0392 C   0  0  0  0  0  0
  -18.6977   16.7962  -17.1538 O   0  0  0  0  0  0
  -18.2085   15.1635  -15.7897 C   0  0  0  0  0  0
  -18.4717   14.3000  -14.7667 C   0  0  0  0  0  0
  -17.5769   13.2712  -14.4696 C   0  0  0  0  0  0
  -16.3573   13.1651  -15.1463 C   0  0  0  0  0  0
  -16.0195   14.0825  -16.1296 C   0  0  0  0  0  0
  -16.9378   15.0780  -16.4616 C   0  0  0  0  0  0
  -23.3070   18.2145  -14.1736 C   0  0  0  0  0  0
  -24.2288   18.3344  -15.2122 C   0  0  0  0  0  0
  -25.5612   18.5799  -14.7548 C   0  0  0  0  0  0
  -25.6128   18.7131  -13.3866 C   0  0  0  0  0  0
  -24.0678   18.5355  -12.6697 S   0  0  0  0  0  0
  -21.2742   24.1796  -11.6303 N   0  0  0  0  0  0
  -21.7579   25.5580  -11.3466 C   0  0  0  0  0  0
  -20.6535   26.2760  -10.6559 C   0  0  0  0  0  0
  -19.9242   25.1131  -10.0040 C   0  0  0  0  0  0
  -19.9871   23.9760  -11.0441 C   0  0  0  0  0  0
  1  2  2  0  0  0
  2  3  1  0  0  0
  2 29  1  0  0  0
  3  4  1  0  0  0
  4  5  1  0  0  0
  5  6  2  0  0  0
  5 10  1  0  0  0
  6  7  1  0  0  0
  6 11  1  0  0  0
  7  8  2  0  0  0
  8  9  1  0  0  0
  9 10  2  0  0  0
 11 12  1  0  0  0
 11 15  1  0  0  0
 12 13  1  0  0  0
 13 14  2  0  0  0
 13 24  1  0  0  0
 14 15  1  0  0  0
 15 16  1  0  0  0
 16 17  2  0  0  0
 16 18  1  0  0  0
 18 19  2  0  0  0
 18 23  1  0  0  0
 19 20  1  0  0  0
 20 21  2  0  0  0
 21 22  1  0  0  0
 22 23  2  0  0  0
 24 25  2  0  0  0
 24 28  1  0  0  0
 25 26  1  0  0  0
 26 27  2  0  0  0
 27 28  1  0  0  0
 29 30  1  0  0  0
 29 33  1  0  0  0
 30 31  1  0  0  0
 31 32  1  0  0  0
 32 33  1  0  0  0
M  END
>  <CHROM.0>
-62.38368927,-168.03003646,-130.21034667,62.90670649,-30.22565932,175.34434143
-156.65885839,-162.84828843

>  <CHROM.1>
155.24734289,-57.76975121,-175.03139386,1.32047622,-176.34343127,-107.58376075
11.89642422,-20.54479060,19.27841247,-13.96856015,1.94662141,0.13082729,0.35735886

>  <Name>
F3008-0038

>  <RI>
3.96271e+07

>  <Rbt.Current_Directory>
/home/adria/Escritorio/rDock_CMTR_LC/2pxcA_model/inputs_sah

>  <Rbt.Executable>
rbdock ($Id: //depot/dev/client3/rdock/2013.1/src/exe/rbdock.cxx#4 $)

>  <Rbt.Library>
libRbt.so (2013.1, Build901 2013/11/27)

>  <Rbt.Parameter_File>
/home/adria/Escritorio/rDock_2013.1_src/data/scripts/dock.prm

>  <Rbt.Receptor>
sah_rdock.prm

>  <SCORE>
-52.5267

>  <SCORE.INTER>
-12.5401

>  <SCORE.INTER.CONST>
1

>  <SCORE.INTER.POLAR>
0

>  <SCORE.INTER.REPUL>
0.00128859

>  <SCORE.INTER.ROT>
7

>  <SCORE.INTER.VDW>
-24.9465

>  <SCORE.INTER.norm>
-0.380003

>  <SCORE.INTRA>
-33.8862

>  <SCORE.INTRA.DIHEDRAL>
-11.3486

>  <SCORE.INTRA.DIHEDRAL.0>
15.7959

>  <SCORE.INTRA.POLAR>
0

>  <SCORE.INTRA.POLAR.0>
0

>  <SCORE.INTRA.REPUL>
0

>  <SCORE.INTRA.REPUL.0>
0

>  <SCORE.INTRA.VDW>
-28.2119

>  <SCORE.INTRA.VDW.0>
25.9494

>  <SCORE.INTRA.norm>
-1.02685

>  <SCORE.RESTR>
0

>  <SCORE.RESTR.CAVITY>
0

>  <SCORE.RESTR.norm>
0

>  <SCORE.SYSTEM>
-6.10046

>  <SCORE.SYSTEM.CONST>
0

>  <SCORE.SYSTEM.DIHEDRAL>
9.31568

>  <SCORE.SYSTEM.POLAR>
-4.27023

>  <SCORE.SYSTEM.VDW>
3.76049

>  <SCORE.SYSTEM.norm>
-0.184862

>  <SCORE.heavy>
33

>  <SCORE.norm>
-1.59172

$$$$
F3008-0038
  rDOCK(R)          3D
libRbt.so/2013.1/901 2013/11/27
 33 37  0  0  0  0  0  0  0  0999 V2000
  -19.6299   22.8856  -14.0625 O   0  0  0  0  0  0
  -20.3271   21.8484  -14.1415 C   0  0  0  0  0  0
  -19.9684   20.4723  -15.2916 C   0  0  0  0  0  0
  -18.9210   19.3568  -15.5218 O   0  0  0  0  0  0
  -17.6095   19.0040  -15.9054 C   0  0  0  0  0  0
  -16.8634   17.7579  -16.0367 C   0  0  0  0  0  0
  -15.4742   17.7044  -16.3297 C   0  0  0  0  0  0
  -14.7576   18.8482  -16.5758 C   0  0  0  0  0  0
  -15.4383   20.0565  -16.5612 C   0  0  0  0  0  0
  -16.8211   20.1331  -16.2277 C   0  0  0  0  0  0
  -17.4085   16.3434  -15.8961 C   0  0  0  0  0  0
  -18.7786   16.3050  -15.1912 C   0  0  0  0  0  0
  -19.6132   16.8536  -16.2774 C   0  0  0  0  0  0
  -19.0000   16.7247  -17.4216 N   0  0  0  0  0  0
  -17.6945   16.0141  -17.2176 N   0  0  0  0  0  0
  -16.7202   15.6287  -18.2734 C   0  0  0  0  0  0
  -16.0548   16.3257  -19.0160 O   0  0  0  0  0  0
  -16.4458   14.2143  -18.6225 C   0  0  0  0  0  0
  -15.6384   13.8337  -19.6545 C   0  0  0  0  0  0
  -15.5918   12.4969  -20.0520 C   0  0  0  0  0  0
  -16.4363   11.5464  -19.4690 C   0  0  0  0  0  0
  -17.3338   11.9194  -18.4802 C   0  0  0  0  0  0
  -17.3418   13.2449  -18.0473 C   0  0  0  0  0  0
  -20.9703   17.3629  -16.1804 C   0  0  0  0  0  0
  -21.8240   17.7940  -17.1943 C   0  0  0  0  0  0
  -23.1505   18.0648  -16.7341 C   0  0  0  0  0  0
  -23.2590   17.9042  -15.3722 C   0  0  0  0  0  0
  -21.7743   17.4251  -14.6661 S   0  0  0  0  0  0
  -21.2913   22.0421  -13.1988 N   0  0  0  0  0  0
  -21.1569   23.3539  -12.5091 C   0  0  0  0  0  0
  -22.1445   23.3670  -11.3970 C   0  0  0  0  0  0
  -23.1925   22.4089  -11.9380 C   0  0  0  0  0  0
  -22.3859   21.3047  -12.6513 C   0  0  0  0  0  0
  1  2  2  0  0  0
  2  3  1  0  0  0
  2 29  1  0  0  0
  3  4  1  0  0  0
  4  5  1  0  0  0
  5  6  2  0  0  0
  5 10  1  0  0  0
  6  7  1  0  0  0
  6 11  1  0  0  0
  7  8  2  0  0  0
  8  9  1  0  0  0
  9 10  2  0  0  0
 11 12  1  0  0  0
 11 15  1  0  0  0
 12 13  1  0  0  0
 13 14  2  0  0  0
 13 24  1  0  0  0
 14 15  1  0  0  0
 15 16  1  0  0  0
 16 17  2  0  0  0
 16 18  1  0  0  0
 18 19  2  0  0  0
 18 23  1  0  0  0
 19 20  1  0  0  0
 20 21  2  0  0  0
 21 22  1  0  0  0
 22 23  2  0  0  0
 24 25  2  0  0  0
 24 28  1  0  0  0
 25 26  1  0  0  0
 26 27  2  0  0  0
 27 28  1  0  0  0
 29 30  1  0  0  0
 29 33  1  0  0  0
 30 31  1  0  0  0
 31 32  1  0  0  0
 32 33  1  0  0  0
M  END
>  <CHROM.0>
-63.82761641,-166.39398868,-44.37097672,62.06269521,168.67502360,178.02603875
-36.45827265,-164.29417449

>  <CHROM.1>
68.40365133,-70.60815404,-179.55317082,-16.75456091,-174.64750547,-84.87538538
174.66171362,-18.97170638,17.95907186,-16.01994231,-2.09442521,-0.26290690
-2.68006274

>  <Name>
F3008-0038

>  <RI>
3.96271e+07

>  <Rbt.Current_Directory>
/home/adria/Escritorio/rDock_CMTR_LC/2pxcA_model/inputs_sah

>  <Rbt.Executable>
rbdock ($Id: //depot/dev/client3/rdock/2013.1/src/exe/rbdock.cxx#4 $)

>  <Rbt.Library>
libRbt.so (2013.1, Build901 2013/11/27)

>  <Rbt.Parameter_File>
/home/adria/Escritorio/rDock_2013.1_src/data/scripts/dock.prm

>  <Rbt.Receptor>
sah_rdock.prm

>  <SCORE>
-47.2147

>  <SCORE.INTER>
-10.0966

>  <SCORE.INTER.CONST>
1

>  <SCORE.INTER.POLAR>
0

>  <SCORE.INTER.REPUL>
0

>  <SCORE.INTER.ROT>
7

>  <SCORE.INTER.VDW>
-22.4966

>  <SCORE.INTER.norm>
-0.305956

>  <SCORE.INTRA>
-35.69

>  <SCORE.INTRA.DIHEDRAL>
-12.4071

>  <SCORE.INTRA.DIHEDRAL.0>
15.7959

>  <SCORE.INTRA.POLAR>
0

>  <SCORE.INTRA.POLAR.0>
0

>  <SCORE.INTRA.REPUL>
0

>  <SCORE.INTRA.REPUL.0>
0

>  <SCORE.INTRA.VDW>
-29.4865

>  <SCORE.INTRA.VDW.0>
25.9494

>  <SCORE.INTRA.norm>
-1.08152

>  <SCORE.RESTR>
0

>  <SCORE.RESTR.CAVITY>
0

>  <SCORE.RESTR.norm>
0

>  <SCORE.SYSTEM>
-1.42805

>  <SCORE.SYSTEM.CONST>
0

>  <SCORE.SYSTEM.DIHEDRAL>
3.71719

>  <SCORE.SYSTEM.POLAR>
-3.61248

>  <SCORE.SYSTEM.VDW>
8.99579

>  <SCORE.SYSTEM.norm>
-0.0432743

>  <SCORE.heavy>
33

>  <SCORE.norm>
-1.43075

$$$$
F3008-0038
  rDOCK(R)          3D
libRbt.so/2013.1/901 2013/11/27
 33 37  0  0  0  0  0  0  0  0999 V2000
  -17.8235   18.3688  -18.3698 O   0  0  0  0  0  0
  -18.2761   17.5800  -17.5089 C   0  0  0  0  0  0
  -19.9748   17.6787  -16.8383 C   0  0  0  0  0  0
  -21.0052   18.7287  -16.3586 O   0  0  0  0  0  0
  -22.3245   19.0127  -15.9460 C   0  0  0  0  0  0
  -22.9864   19.2532  -14.6690 C   0  0  0  0  0  0
  -24.3936   19.3925  -14.5307 C   0  0  0  0  0  0
  -25.2185   19.3737  -15.6268 C   0  0  0  0  0  0
  -24.6331   19.2463  -16.8777 C   0  0  0  0  0  0
  -23.2290   19.0628  -17.0323 C   0  0  0  0  0  0
  -22.3243   19.3988  -13.3059 C   0  0  0  0  0  0
  -20.8751   18.8742  -13.2933 C   0  0  0  0  0  0
  -20.2320   19.9525  -14.0685 C   0  0  0  0  0  0
  -20.9775   21.0229  -14.0502 N   0  0  0  0  0  0
  -22.1891   20.7797  -13.1993 N   0  0  0  0  0  0
  -23.2611   21.7607  -12.8819 C   0  0  0  0  0  0
  -24.4374   21.5798  -12.6293 O   0  0  0  0  0  0
  -23.0235   23.2240  -12.8805 C   0  0  0  0  0  0
  -21.8110   23.7923  -12.6189 C   0  0  0  0  0  0
  -21.7089   25.1713  -12.4311 C   0  0  0  0  0  0
  -22.8514   25.9780  -12.4117 C   0  0  0  0  0  0
  -24.1079   25.4175  -12.5835 C   0  0  0  0  0  0
  -24.2035   24.0472  -12.8239 C   0  0  0  0  0  0
  -18.9153   19.9376  -14.6823 C   0  0  0  0  0  0
  -17.9051   18.9831  -14.5771 C   0  0  0  0  0  0
  -16.8102   19.2242  -15.4647 C   0  0  0  0  0  0
  -16.9767   20.3922  -16.1721 C   0  0  0  0  0  0
  -18.4433   21.1788  -15.7687 S   0  0  0  0  0  0
  -17.2397   16.7241  -17.2874 N   0  0  0  0  0  0
  -16.0358   17.0686  -18.0915 C   0  0  0  0  0  0
  -15.0510   15.9709  -17.8977 C   0  0  0  0  0  0
  -15.4598   15.4632  -16.5250 C   0  0  0  0  0  0
  -17.0000   15.5443  -16.5177 C   0  0  0  0  0  0
  1  2  2  0  0  0
  2  3  1  0  0  0
  2 29  1  0  0  0
  3  4  1  0  0  0
  4  5  1  0  0  0
  5  6  2  0  0  0
  5 10  1  0  0  0
  6  7  1  0  0  0
  6 11  1  0  0  0
  7  8  2  0  0  0
  8  9  1  0  0  0
  9 10  2  0  0  0
 11 12  1  0  0  0
 11 15  1  0  0  0
 12 13  1  0  0  0
 13 14  2  0  0  0
 13 24  1  0  0  0
 14 15  1  0  0  0
 15 16  1  0  0  0
 16 17  2  0  0  0
 16 18  1  0  0  0
 18 19  2  0  0  0
 18 23  1  0  0  0
 19 20  1  0  0  0
 20 21  2  0  0  0
 21 22  1  0  0  0
 22 23  2  0  0  0
 24 25  2  0  0  0
 24 28  1  0  0  0
 25 26  1  0  0  0
 26 27  2  0  0  0
 27 28  1  0  0  0
 29 30  1  0  0  0
 29 33  1  0  0  0
 30 31  1  0  0  0
 31 32  1  0  0  0
 32 33  1  0  0  0
M  END
>  <CHROM.0>
-63.95234269,-169.83804037,73.14010488,59.65287679,-29.29197512,-56.39572328
82.12835703,-161.68619763

>  <CHROM.1>
-41.41962661,171.13084988,102.39388116,-16.45871034,-7.29573507,1.61079066
-27.87817287,-20.51839846,19.96981999,-15.09750818,-0.81645962,0.08749292
0.51522172

>  <Name>
F3008-0038

>  <RI>
3.96271e+07

>  <Rbt.Current_Directory>
/home/adria/Escritorio/rDock_CMTR_LC/2pxcA_model/inputs_sah

>  <Rbt.Executable>
rbdock ($Id: //depot/dev/client3/rdock/2013.1/src/exe/rbdock.cxx#4 $)

>  <Rbt.Library>
libRbt.so (2013.1, Build901 2013/11/27)

>  <Rbt.Parameter_File>
/home/adria/Escritorio/rDock_2013.1_src/data/scripts/dock.prm

>  <Rbt.Receptor>
sah_rdock.prm

>  <SCORE>
-52.8664

>  <SCORE.INTER>
-13.443

>  <SCORE.INTER.CONST>
1

>  <SCORE.INTER.POLAR>
0

>  <SCORE.INTER.REPUL>
0

>  <SCORE.INTER.ROT>
7

>  <SCORE.INTER.VDW>
-25.843

>  <SCORE.INTER.norm>
-0.407364

>  <SCORE.INTRA>
-32.9948

>  <SCORE.INTRA.DIHEDRAL>
-6.29001

>  <SCORE.INTRA.DIHEDRAL.0>
15.7959

>  <SCORE.INTRA.POLAR>
0

>  <SCORE.INTRA.POLAR.0>
0

>  <SCORE.INTRA.REPUL>
0

>  <SCORE.INTRA.REPUL.0>
0

>  <SCORE.INTRA.VDW>
-29.8498

>  <SCORE.INTRA.VDW.0>
25.9494

>  <SCORE.INTRA.norm>
-0.999843

>  <SCORE.RESTR>
0

>  <SCORE.RESTR.CAVITY>
0

>  <SCORE.RESTR.norm>
0

>  <SCORE.SYSTEM>
-6.42861

>  <SCORE.SYSTEM.CONST>
0

>  <SCORE.SYSTEM.DIHEDRAL>
6.30311

>  <SCORE.SYSTEM.POLAR>
-3.72964

>  <SCORE.SYSTEM.VDW>
3.10061

>  <SCORE.SYSTEM.norm>
-0.194806

>  <SCORE.heavy>
33

>  <SCORE.norm>
-1.60201

$$$$
F3008-0038
  rDOCK(R)          3D
libRbt.so/2013.1/901 2013/11/27
 33 37  0  0  0  0  0  0  0  0999 V2000
  -19.1368   16.3255  -14.0601 O   0  0  0  0  0  0
  -19.7433   17.1017  -14.8332 C   0  0  0  0  0  0
  -21.3943   17.8025  -14.4747 C   0  0  0  0  0  0
  -22.1535   18.5414  -13.3469 O   0  0  0  0  0  0
  -23.3570   19.1209  -12.8915 C   0  0  0  0  0  0
  -23.7162   20.1376  -11.9098 C   0  0  0  0  0  0
  -25.0574   20.4434  -11.5543 C   0  0  0  0  0  0
  -26.1133   19.8296  -12.1791 C   0  0  0  0  0  0
  -25.8316   18.9242  -13.1913 C   0  0  0  0  0  0
  -24.4935   18.5739  -13.5317 C   0  0  0  0  0  0
  -22.7653   21.0266  -11.1202 C   0  0  0  0  0  0
  -21.2876   20.6376  -11.3217 C   0  0  0  0  0  0
  -21.1039   21.1321  -12.6997 C   0  0  0  0  0  0
  -22.0214   22.0146  -12.9846 N   0  0  0  0  0  0
  -22.8924   22.2428  -11.7844 N   0  0  0  0  0  0
  -24.0214   23.2053  -11.6783 C   0  0  0  0  0  0
  -24.3698   24.0894  -12.4378 O   0  0  0  0  0  0
  -24.9213   23.2470  -10.5009 C   0  0  0  0  0  0
  -26.0397   24.0254  -10.4319 C   0  0  0  0  0  0
  -26.7194   24.1705   -9.2218 C   0  0  0  0  0  0
  -26.2171   23.6039   -8.0458 C   0  0  0  0  0  0
  -25.0329   22.8830   -8.0656 C   0  0  0  0  0  0
  -24.3832   22.6943   -9.2850 C   0  0  0  0  0  0
  -20.0191   20.8215  -13.6147 C   0  0  0  0  0  0
  -19.7518   21.3508  -14.8761 C   0  0  0  0  0  0
  -18.4939   20.9269  -15.4078 C   0  0  0  0  0  0
  -17.8657   20.0303  -14.5747 C   0  0  0  0  0  0
  -18.7871   19.7149  -13.1662 S   0  0  0  0  0  0
  -18.8765   17.2547  -15.8728 N   0  0  0  0  0  0
  -17.6332   16.4558  -15.6989 C   0  0  0  0  0  0
  -16.7066   16.8434  -16.7961 C   0  0  0  0  0  0
  -17.6973   17.2866  -17.8597 C   0  0  0  0  0  0
  -18.8115   18.0151  -17.0809 C   0  0  0  0  0  0
  1  2  2  0  0  0
  2  3  1  0  0  0
  2 29  1  0  0  0
  3  4  1  0  0  0
  4  5  1  0  0  0
  5  6  2  0  0  0
  5 10  1  0  0  0
  6  7  1  0  0  0
  6 11  1  0  0  0
  7  8  2  0  0  0
  8  9  1  0  0  0
  9 10  2  0  0  0
 11 12  1  0  0  0
 11 15  1  0  0  0
 12 13  1  0  0  0
 13 14  2  0  0  0
 13 24  1  0  0  0
 14 15  1  0  0  0
 15 16  1  0  0  0
 16 17  2  0  0  0
 16 18  1  0  0  0
 18 19  2  0  0  0
 18 23  1  0  0  0
 19 20  1  0  0  0
 20 21  2  0  0  0
 21 22  1  0  0  0
 22 23  2  0  0  0
 24 25  2  0  0  0
 24 28  1  0  0  0
 25 26  1  0  0  0
 26 27  2  0  0  0
 27 28  1  0  0  0
 29 30  1  0  0  0
 29 33  1  0  0  0
 30 31  1  0  0  0
 31 32  1  0  0  0
 32 33  1  0  0  0
M  END
>  <CHROM.0>
175.00874619,63.89948551,74.89684016,-58.73642300,-30.13020044,60.84468843
84.43781002,-163.53152434

>  <CHROM.1>
50.05778898,-178.96023494,-156.26811784,-7.23756224,-174.09231157,-159.38129161
-173.33990177,-21.85317904,20.24248224,-12.98473448,0.75503516,-0.35752379
-2.66554766

>  <Name>
F3008-0038

>  <RI>
3.96271e+07

>  <Rbt.Current_Directory>
/home/adria/Escritorio/rDock_CMTR_LC/2pxcA_model/inputs_sah

>  <Rbt.Executable>
rbdock ($Id: //depot/dev/client3/rdock/2013.1/src/exe/rbdock.cxx#4 $)

>  <Rbt.Library>
libRbt.so (2013.1, Build901 2013/11/27)

>  <Rbt.Parameter_File>
/home/adria/Escritorio/rDock_2013.1_src/data/scripts/dock.prm

>  <Rbt.Receptor>
sah_rdock.prm

>  <SCORE>
-53.7601

>  <SCORE.INTER>
-10.6403

>  <SCORE.INTER.CONST>
1

>  <SCORE.INTER.POLAR>
-0.634605

>  <SCORE.INTER.REPUL>
0.0156777

>  <SCORE.INTER.ROT>
7

>  <SCORE.INTER.VDW>
-20.961

>  <SCORE.INTER.norm>
-0.322432

>  <SCORE.INTRA>
-36.5878

>  <SCORE.INTRA.DIHEDRAL>
-11.2405

>  <SCORE.INTRA.DIHEDRAL.0>
15.7959

>  <SCORE.INTRA.POLAR>
0

>  <SCORE.INTRA.POLAR.0>
0

>  <SCORE.INTRA.REPUL>
0

>  <SCORE.INTRA.REPUL.0>
0

>  <SCORE.INTRA.VDW>
-30.9676

>  <SCORE.INTRA.VDW.0>
25.9494

>  <SCORE.INTRA.norm>
-1.10872

>  <SCORE.RESTR>
0

>  <SCORE.RESTR.CAVITY>
0

>  <SCORE.RESTR.norm>
0

>  <SCORE.SYSTEM>
-6.532

>  <SCORE.SYSTEM.CONST>
0

>  <SCORE.SYSTEM.DIHEDRAL>
5.97142

>  <SCORE.SYSTEM.POLAR>
-3.71502

>  <SCORE.SYSTEM.VDW>
3.11334

>  <SCORE.SYSTEM.norm>
-0.19794

>  <SCORE.heavy>
33

>  <SCORE.norm>
-1.62909

$$$$
F3008-0038
  rDOCK(R)          3D
libRbt.so/2013.1/901 2013/11/27
 33 37  0  0  0  0  0  0  0  0999 V2000
  -19.2285   15.7720  -13.9764 O   0  0  0  0  0  0
  -19.5119   16.2421  -15.1020 C   0  0  0  0  0  0
  -20.6072   17.6857  -15.3499 C   0  0  0  0  0  0
  -21.0546   18.9777  -14.6255 O   0  0  0  0  0  0
  -21.7097   19.5697  -13.5245 C   0  0  0  0  0  0
  -21.3620   20.5693  -12.5213 C   0  0  0  0  0  0
  -22.1954   20.8929  -11.4170 C   0  0  0  0  0  0
  -23.4311   20.3155  -11.2689 C   0  0  0  0  0  0
  -23.8552   19.4294  -12.2481 C   0  0  0  0  0  0
  -23.0164   19.0611  -13.3389 C   0  0  0  0  0  0
  -20.1003   21.4198  -12.4728 C   0  0  0  0  0  0
  -18.9029   20.7414  -13.1668 C   0  0  0  0  0  0
  -19.3300   20.8980  -14.5705 C   0  0  0  0  0  0
  -20.2163   21.8505  -14.6652 N   0  0  0  0  0  0
  -20.4330   22.4742  -13.3178 N   0  0  0  0  0  0
  -21.3253   23.6224  -13.0054 C   0  0  0  0  0  0
  -22.1899   24.1478  -13.6811 O   0  0  0  0  0  0
  -21.2342   24.3752  -11.7316 C   0  0  0  0  0  0
  -21.9995   25.4673  -11.4429 C   0  0  0  0  0  0
  -21.7159   26.2449  -10.3195 C   0  0  0  0  0  0
  -20.5933   25.9786   -9.5287 C   0  0  0  0  0  0
  -19.7436   24.9306   -9.8487 C   0  0  0  0  0  0
  -20.0579   24.1223  -10.9406 C   0  0  0  0  0  0
  -18.7996   20.2164  -15.7387 C   0  0  0  0  0  0
  -19.2034   20.3060  -17.0697 C   0  0  0  0  0  0
  -18.3306   19.6169  -17.9688 C   0  0  0  0  0  0
  -17.3253   18.9597  -17.2981 C   0  0  0  0  0  0
  -17.4369   19.1827  -15.6039 S   0  0  0  0  0  0
  -18.8101   15.4518  -15.9613 N   0  0  0  0  0  0
  -18.0511   14.3818  -15.2589 C   0  0  0  0  0  0
  -17.1978   13.7106  -16.2757 C   0  0  0  0  0  0
  -18.0079   13.9634  -17.5362 C   0  0  0  0  0  0
  -18.5632   15.3924  -17.3675 C   0  0  0  0  0  0
  1  2  2  0  0  0
  2  3  1  0  0  0
  2 29  1  0  0  0
  3  4  1  0  0  0
  4  5  1  0  0  0
  5  6  2  0  0  0
  5 10  1  0  0  0
  6  7  1  0  0  0
  6 11  1  0  0  0
  7  8  2  0  0  0
  8  9  1  0  0  0
  9 10  2  0  0  0
 11 12  1  0  0  0
 11 15  1  0  0  0
 12 13  1  0  0  0
 13 14  2  0  0  0
 13 24  1  0  0  0
 14 15  1  0  0  0
 15 16  1  0  0  0
 16 17  2  0  0  0
 16 18  1  0  0  0
 18 19  2  0  0  0
 18 23  1  0  0  0
 19 20  1  0  0  0
 20 21  2  0  0  0
 21 22  1  0  0  0
 22 23  2  0  0  0
 24 25  2  0  0  0
 24 28  1  0  0  0
 25 26  1  0  0  0
 26 27  2  0  0  0
 27 28  1  0  0  0
 29 30  1  0  0  0
 29 33  1  0  0  0
 30 31  1  0  0  0
 31 32  1  0  0  0
 32 33  1  0  0  0
M  END
>  <CHROM.0>
-60.27222356,-165.34334125,-164.69520454,65.03302816,168.01190498,-60.99553613
82.33883953,-163.70528311

>  <CHROM.1>
28.60900737,-63.61020837,126.39427834,-26.89359181,177.75281564,-137.04548221
177.04199996,-20.03943540,20.06266816,-13.99118849,1.16696955,-0.71354413
-2.87489886

>  <Name>
F3008-0038

>  <RI>
3.96271e+07

>  <Rbt.Current_Directory>
/home/adria/Escritorio/rDock_CMTR_LC/2pxcA_model/inputs_sah

>  <Rbt.Executable>
rbdock ($Id: //depot/dev/client3/rdock/2013.1/src/exe/rbdock.cxx#4 $)

>  <Rbt.Library>
libRbt.so (2013.1, Build901 2013/11/27)

>  <Rbt.Parameter_File>
/home/adria/Escritorio/rDock_2013.1_src/data/scripts/dock.prm

>  <Rbt.Receptor>
sah_rdock.prm

>  <SCORE>
-54.2247

>  <SCORE.INTER>
-18.4266

>  <SCORE.INTER.CONST>
1

>  <SCORE.INTER.POLAR>
-0.562486

>  <SCORE.INTER.REPUL>
0.166541

>  <SCORE.INTER.ROT>
7

>  <SCORE.INTER.VDW>
-29.7468

>  <SCORE.INTER.norm>
-0.558381

>  <SCORE.INTRA>
-34.6318

>  <SCORE.INTRA.DIHEDRAL>
-9.50626

>  <SCORE.INTRA.DIHEDRAL.0>
15.7959

>  <SCORE.INTRA.POLAR>
0

>  <SCORE.INTRA.POLAR.0>
0

>  <SCORE.INTRA.REPUL>
0

>  <SCORE.INTRA.REPUL.0>
0

>  <SCORE.INTRA.VDW>
-29.8787

>  <SCORE.INTRA.VDW.0>
25.9494

>  <SCORE.INTRA.norm>
-1.04945

>  <SCORE.RESTR>
0

>  <SCORE.RESTR.CAVITY>
0

>  <SCORE.RESTR.norm>
0

>  <SCORE.SYSTEM>
-1.1663

>  <SCORE.SYSTEM.CONST>
0

>  <SCORE.SYSTEM.DIHEDRAL>
3.8452

>  <SCORE.SYSTEM.POLAR>
-3.53001

>  <SCORE.SYSTEM.VDW>
8.91315

>  <SCORE.SYSTEM.norm>
-0.0353425

>  <SCORE.heavy>
33

>  <SCORE.norm>
-1.64317

$$$$
F3008-0038
  rDOCK(R)          3D
libRbt.so/2013.1/901 2013/11/27
 33 37  0  0  0  0  0  0  0  0999 V2000
  -24.3569   23.7199  -10.7856 O   0  0  0  0  0  0
  -23.2914   23.3888  -11.3540 C   0  0  0  0  0  0
  -23.1858   22.0742  -12.6212 C   0  0  0  0  0  0
  -22.3560   20.8130  -12.9605 O   0  0  0  0  0  0
  -21.0885   20.2392  -13.1969 C   0  0  0  0  0  0
  -20.5651   18.8828  -13.3098 C   0  0  0  0  0  0
  -19.1808   18.5853  -13.4283 C   0  0  0  0  0  0
  -18.2458   19.5858  -13.5111 C   0  0  0  0  0  0
  -18.6965   20.8975  -13.5078 C   0  0  0  0  0  0
  -20.0757   21.2150  -13.3470 C   0  0  0  0  0  0
  -21.3668   17.5887  -13.3266 C   0  0  0  0  0  0
  -22.8782   17.8318  -13.5060 C   0  0  0  0  0  0
  -22.8829   18.2193  -14.9297 C   0  0  0  0  0  0
  -21.7957   17.7950  -15.5127 N   0  0  0  0  0  0
  -20.9666   17.0195  -14.5318 N   0  0  0  0  0  0
  -19.6788   16.3291  -14.8098 C   0  0  0  0  0  0
  -19.1711   15.3695  -14.2607 O   0  0  0  0  0  0
  -18.7382   16.7944  -15.8569 C   0  0  0  0  0  0
  -18.9304   17.9243  -16.5972 C   0  0  0  0  0  0
  -18.1165   18.1869  -17.6999 C   0  0  0  0  0  0
  -17.1596   17.2578  -18.1213 C   0  0  0  0  0  0
  -17.0021   16.0581  -17.4442 C   0  0  0  0  0  0
  -17.7796   15.8207  -16.3111 C   0  0  0  0  0  0
  -23.9537   18.8669  -15.6676 C   0  0  0  0  0  0
  -25.2247   19.2379  -15.2320 C   0  0  0  0  0  0
  -25.9447   20.0116  -16.1951 C   0  0  0  0  0  0
  -25.2375   20.1511  -17.3668 C   0  0  0  0  0  0
  -23.7203   19.3604  -17.2941 S   0  0  0  0  0  0
  -22.3685   24.2329  -10.8139 N   0  0  0  0  0  0
  -22.9579   25.1428   -9.7946 C   0  0  0  0  0  0
  -21.9019   26.1200   -9.4171 C   0  0  0  0  0  0
  -20.6498   25.3091   -9.7064 C   0  0  0  0  0  0
  -20.9797   24.5194  -10.9895 C   0  0  0  0  0  0
  1  2  2  0  0  0
  2  3  1  0  0  0
  2 29  1  0  0  0
  3  4  1  0  0  0
  4  5  1  0  0  0
  5  6  2  0  0  0
  5 10  1  0  0  0
  6  7  1  0  0  0
  6 11  1  0  0  0
  7  8  2  0  0  0
  8  9  1  0  0  0
  9 10  2  0  0  0
 11 12  1  0  0  0
 11 15  1  0  0  0
 12 13  1  0  0  0
 13 14  2  0  0  0
 13 24  1  0  0  0
 14 15  1  0  0  0
 15 16  1  0  0  0
 16 17  2  0  0  0
 16 18  1  0  0  0
 18 19  2  0  0  0
 18 23  1  0  0  0
 19 20  1  0  0  0
 20 21  2  0  0  0
 21 22  1  0  0  0
 22 23  2  0  0  0
 24 25  2  0  0  0
 24 28  1  0  0  0
 25 26  1  0  0  0
 26 27  2  0  0  0
 27 28  1  0  0  0
 29 30  1  0  0  0
 29 33  1  0  0  0
 30 31  1  0  0  0
 31 32  1  0  0  0
 32 33  1  0  0  0
M  END
>  <CHROM.0>
-59.78588673,-76.88749144,-164.06309763,-146.39875177,-29.78551371,-60.92010011
-157.03186939,-50.19575751

>  <CHROM.1>
-130.47321366,-55.06476691,167.99378942,12.06438904,-2.01417424,56.86714239
3.78909038,-21.35434464,19.87841544,-14.10612203,1.91886943,-0.25892687,0.74039407

>  <Name>
F3008-0038

>  <RI>
3.96271e+07

>  <Rbt.Current_Directory>
/home/adria/Escritorio/rDock_CMTR_LC/2pxcA_model/inputs_sah

>  <Rbt.Executable>
rbdock ($Id: //depot/dev/client3/rdock/2013.1/src/exe/rbdock.cxx#4 $)

>  <Rbt.Library>
libRbt.so (2013.1, Build901 2013/11/27)

>  <Rbt.Parameter_File>
/home/adria/Escritorio/rDock_2013.1_src/data/scripts/dock.prm

>  <Rbt.Receptor>
sah_rdock.prm

>  <SCORE>
-48.0359

>  <SCORE.INTER>
-13.1592

>  <SCORE.INTER.CONST>
1

>  <SCORE.INTER.POLAR>
0

>  <SCORE.INTER.REPUL>
0

>  <SCORE.INTER.ROT>
7

>  <SCORE.INTER.VDW>
-25.5592

>  <SCORE.INTER.norm>
-0.398764

>  <SCORE.INTRA>
-32.7791

>  <SCORE.INTRA.DIHEDRAL>
-11.9256

>  <SCORE.INTRA.DIHEDRAL.0>
15.7959

>  <SCORE.INTRA.POLAR>
0

>  <SCORE.INTRA.POLAR.0>
0

>  <SCORE.INTRA.REPUL>
0

>  <SCORE.INTRA.REPUL.0>
0

>  <SCORE.INTRA.VDW>
-26.8164

>  <SCORE.INTRA.VDW.0>
25.9494

>  <SCORE.INTRA.norm>
-0.993307

>  <SCORE.RESTR>
0

>  <SCORE.RESTR.CAVITY>
0

>  <SCORE.RESTR.norm>
0

>  <SCORE.SYSTEM>
-2.09754

>  <SCORE.SYSTEM.CONST>
0

>  <SCORE.SYSTEM.DIHEDRAL>
13.8095

>  <SCORE.SYSTEM.POLAR>
-3.75447

>  <SCORE.SYSTEM.REPUL>
0.0559873

>  <SCORE.SYSTEM.VDW>
3.48297

>  <SCORE.SYSTEM.norm>
-0.0635618

>  <SCORE.heavy>
33

>  <SCORE.norm>
-1.45563

$$$$
F3008-0038
  rDOCK(R)          3D
libRbt.so/2013.1/901 2013/11/27
 33 37  0  0  0  0  0  0  0  0999 V2000
  -21.3249   23.0002  -13.9590 O   0  0  0  0  0  0
  -20.6911   22.6290  -12.9447 C   0  0  0  0  0  0
  -19.7790   21.0470  -12.8434 C   0  0  0  0  0  0
  -19.3520   19.8605  -13.7402 O   0  0  0  0  0  0
  -18.4882   19.3624  -14.7389 C   0  0  0  0  0  0
  -18.2758   18.0705  -15.3813 C   0  0  0  0  0  0
  -17.2178   17.8149  -16.2945 C   0  0  0  0  0  0
  -16.3585   18.8123  -16.6803 C   0  0  0  0  0  0
  -16.5741   20.0862  -16.1757 C   0  0  0  0  0  0
  -17.6029   20.3516  -15.2270 C   0  0  0  0  0  0
  -19.1126   16.8108  -15.2066 C   0  0  0  0  0  0
  -20.5600   17.1175  -14.7747 C   0  0  0  0  0  0
  -21.0723   17.6572  -16.0488 C   0  0  0  0  0  0
  -20.3159   17.2660  -17.0370 N   0  0  0  0  0  0
  -19.2348   16.3639  -16.5188 N   0  0  0  0  0  0
  -18.1969   15.6690  -17.3264 C   0  0  0  0  0  0
  -17.9549   15.7390  -18.5166 O   0  0  0  0  0  0
  -17.2694   14.6725  -16.7395 C   0  0  0  0  0  0
  -16.3292   13.9978  -17.4623 C   0  0  0  0  0  0
  -15.6365   12.9308  -16.8887 C   0  0  0  0  0  0
  -15.9581   12.4748  -15.6061 C   0  0  0  0  0  0
  -16.9720   13.0814  -14.8805 C   0  0  0  0  0  0
  -17.6269   14.1810  -15.4341 C   0  0  0  0  0  0
  -22.2943   18.4131  -16.2628 C   0  0  0  0  0  0
  -22.8407   18.8854  -17.4549 C   0  0  0  0  0  0
  -24.1486   19.4402  -17.2921 C   0  0  0  0  0  0
  -24.5387   19.4444  -15.9729 C   0  0  0  0  0  0
  -23.3375   18.7780  -14.9504 S   0  0  0  0  0  0
  -20.8572   23.6615  -12.0718 N   0  0  0  0  0  0
  -21.7069   24.7478  -12.6309 C   0  0  0  0  0  0
  -21.6639   25.8783  -11.6651 C   0  0  0  0  0  0
  -21.3836   25.1337  -10.3704 C   0  0  0  0  0  0
  -20.3988   24.0143  -10.7652 C   0  0  0  0  0  0
  1  2  2  0  0  0
  2  3  1  0  0  0
  2 29  1  0  0  0
  3  4  1  0  0  0
  4  5  1  0  0  0
  5  6  2  0  0  0
  5 10  1  0  0  0
  6  7  1  0  0  0
  6 11  1  0  0  0
  7  8  2  0  0  0
  8  9  1  0  0  0
  9 10  2  0  0  0
 11 12  1  0  0  0
 11 15  1  0  0  0
 12 13  1  0  0  0
 13 14  2  0  0  0
 13 24  1  0  0  0
 14 15  1  0  0  0
 15 16  1  0  0  0
 16 17  2  0  0  0
 16 18  1  0  0  0
 18 19  2  0  0  0
 18 23  1  0  0  0
 19 20  1  0  0  0
 20 21  2  0  0  0
 21 22  1  0  0  0
 22 23  2  0  0  0
 24 25  2  0  0  0
 24 28  1  0  0  0
 25 26  1  0  0  0
 26 27  2  0  0  0
 27 28  1  0  0  0
 29 30  1  0  0  0
 29 33  1  0  0  0
 30 31  1  0  0  0
 31 32  1  0  0  0
 32 33  1  0  0  0
M  END
>  <CHROM.0>
-62.71553561,-76.49655725,109.97232946,66.07665282,-32.33482933,-61.23785552
-36.54849210,-157.57873388

>  <CHROM.1>
7.40354395,75.94940280,175.85543302,25.07094613,-176.74479005,-144.80119344
178.42924502,-19.72763819,18.79648253,-15.09798390,-1.99642877,0.24975590
-2.59910673

>  <Name>
F3008-0038

>  <RI>
3.96271e+07

>  <Rbt.Current_Directory>
/home/adria/Escritorio/rDock_CMTR_LC/2pxcA_model/inputs_sah

>  <Rbt.Executable>
rbdock ($Id: //depot/dev/client3/rdock/2013.1/src/exe/rbdock.cxx#4 $)

>  <Rbt.Library>
libRbt.so (2013.1, Build901 2013/11/27)

>  <Rbt.Parameter_File>
/home/adria/Escritorio/rDock_2013.1_src/data/scripts/dock.prm

>  <Rbt.Receptor>
sah_rdock.prm

>  <SCORE>
-49.7951

>  <SCORE.INTER>
-12.8066

>  <SCORE.INTER.CONST>
1

>  <SCORE.INTER.POLAR>
0

>  <SCORE.INTER.REPUL>
0.481187

>  <SCORE.INTER.ROT>
7

>  <SCORE.INTER.VDW>
-27.6125

>  <SCORE.INTER.norm>
-0.388079

>  <SCORE.INTRA>
-29.6176

>  <SCORE.INTRA.DIHEDRAL>
-11.5464

>  <SCORE.INTRA.DIHEDRAL.0>
15.7959

>  <SCORE.INTRA.POLAR>
0

>  <SCORE.INTRA.POLAR.0>
0

>  <SCORE.INTRA.REPUL>
0

>  <SCORE.INTRA.REPUL.0>
0

>  <SCORE.INTRA.VDW>
-23.8444

>  <SCORE.INTRA.VDW.0>
25.9494

>  <SCORE.INTRA.norm>
-0.897504

>  <SCORE.RESTR>
0

>  <SCORE.RESTR.CAVITY>
0

>  <SCORE.RESTR.norm>
0

>  <SCORE.SYSTEM>
-7.37094

>  <SCORE.SYSTEM.CONST>
0

>  <SCORE.SYSTEM.DIHEDRAL>
9.89415

>  <SCORE.SYSTEM.POLAR>
-4.66636

>  <SCORE.SYSTEM.REPUL>
0.0441728

>  <SCORE.SYSTEM.VDW>
3.32675

>  <SCORE.SYSTEM.norm>
-0.223362

>  <SCORE.heavy>
33

>  <SCORE.norm>
-1.50894

$$$$
F3008-0038
  rDOCK(R)          3D
libRbt.so/2013.1/901 2013/11/27
 33 37  0  0  0  0  0  0  0  0999 V2000
  -18.9162   14.1530  -13.8202 O   0  0  0  0  0  0
  -18.6069   14.9953  -14.6937 C   0  0  0  0  0  0
  -19.4332   16.6169  -14.8743 C   0  0  0  0  0  0
  -19.8398   17.8458  -14.0264 O   0  0  0  0  0  0
  -20.6592   18.3843  -13.0114 C   0  0  0  0  0  0
  -20.6120   19.5605  -12.1507 C   0  0  0  0  0  0
  -21.5346   19.7963  -11.0961 C   0  0  0  0  0  0
  -22.5838   18.9422  -10.8686 C   0  0  0  0  0  0
  -22.7348   17.8580  -11.7203 C   0  0  0  0  0  0
  -21.7959   17.5825  -12.7555 C   0  0  0  0  0  0
  -19.6140   20.7081  -12.2196 C   0  0  0  0  0  0
  -18.4043   20.3865  -13.1190 C   0  0  0  0  0  0
  -19.0660   20.4700  -14.4353 C   0  0  0  0  0  0
  -20.1679   21.1615  -14.3393 N   0  0  0  0  0  0
  -20.3272   21.6652  -12.9350 N   0  0  0  0  0  0
  -21.4223   22.5315  -12.4226 C   0  0  0  0  0  0
  -22.6208   22.4799  -12.6256 O   0  0  0  0  0  0
  -21.1657   23.7077  -11.5576 C   0  0  0  0  0  0
  -19.9168   24.1759  -11.2698 C   0  0  0  0  0  0
  -19.7431   25.1526  -10.2885 C   0  0  0  0  0  0
  -20.8246   25.5967   -9.5206 C   0  0  0  0  0  0
  -22.0920   25.0734   -9.7266 C   0  0  0  0  0  0
  -22.2732   24.1364  -10.7433 C   0  0  0  0  0  0
  -18.5650   19.9864  -15.7103 C   0  0  0  0  0  0
  -19.1304   20.1002  -16.9793 C   0  0  0  0  0  0
  -18.2620   19.6517  -18.0231 C   0  0  0  0  0  0
  -17.0869   19.1408  -17.5227 C   0  0  0  0  0  0
  -17.0375   19.2120  -15.8124 S   0  0  0  0  0  0
  -17.5754   14.4009  -15.3559 N   0  0  0  0  0  0
  -17.2644   13.0459  -14.8252 C   0  0  0  0  0  0
  -16.0232   12.5846  -15.5026 C   0  0  0  0  0  0
  -16.1065   13.3620  -16.8057 C   0  0  0  0  0  0
  -16.6681   14.7417  -16.4059 C   0  0  0  0  0  0
  1  2  2  0  0  0
  2  3  1  0  0  0
  2 29  1  0  0  0
  3  4  1  0  0  0
  4  5  1  0  0  0
  5  6  2  0  0  0
  5 10  1  0  0  0
  6  7  1  0  0  0
  6 11  1  0  0  0
  7  8  2  0  0  0
  8  9  1  0  0  0
  9 10  2  0  0  0
 11 12  1  0  0  0
 11 15  1  0  0  0
 12 13  1  0  0  0
 13 14  2  0  0  0
 13 24  1  0  0  0
 14 15  1  0  0  0
 15 16  1  0  0  0
 16 17  2  0  0  0
 16 18  1  0  0  0
 18 19  2  0  0  0
 18 23  1  0  0  0
 19 20  1  0  0  0
 20 21  2  0  0  0
 21 22  1  0  0  0
 22 23  2  0  0  0
 24 25  2  0  0  0
 24 28  1  0  0  0
 25 26  1  0  0  0
 26 27  2  0  0  0
 27 28  1  0  0  0
 29 30  1  0  0  0
 29 33  1  0  0  0
 30 31  1  0  0  0
 31 32  1  0  0  0
 32 33  1  0  0  0
M  END
>  <CHROM.0>
-179.43609700,67.11533905,-43.99062023,58.37277775,-30.51337964,63.92703964
-36.21508730,-161.81108889

>  <CHROM.1>
50.52745202,-68.50322359,160.95832606,-12.90532807,-176.75295213,-106.62460985
6.87472400,-19.50864872,19.27313792,-13.67156642,0.95505439,-0.87586642,3.13586196

>  <Name>
F3008-0038

>  <RI>
3.96271e+07

>  <Rbt.Current_Directory>
/home/adria/Escritorio/rDock_CMTR_LC/2pxcA_model/inputs_sah

>  <Rbt.Executable>
rbdock ($Id: //depot/dev/client3/rdock/2013.1/src/exe/rbdock.cxx#4 $)

>  <Rbt.Library>
libRbt.so (2013.1, Build901 2013/11/27)

>  <Rbt.Parameter_File>
/home/adria/Escritorio/rDock_2013.1_src/data/scripts/dock.prm

>  <Rbt.Receptor>
sah_rdock.prm

>  <SCORE>
-59.549

>  <SCORE.INTER>
-18.279

>  <SCORE.INTER.CONST>
1

>  <SCORE.INTER.POLAR>
0

>  <SCORE.INTER.REPUL>
0.284073

>  <SCORE.INTER.ROT>
7

>  <SCORE.INTER.VDW>
-32.0994

>  <SCORE.INTER.norm>
-0.553909

>  <SCORE.INTRA>
-34.6289

>  <SCORE.INTRA.DIHEDRAL>
-11.2271

>  <SCORE.INTRA.DIHEDRAL.0>
15.7959

>  <SCORE.INTRA.POLAR>
0

>  <SCORE.INTRA.POLAR.0>
0

>  <SCORE.INTRA.REPUL>
0

>  <SCORE.INTRA.REPUL.0>
0

>  <SCORE.INTRA.VDW>
-29.0153

>  <SCORE.INTRA.VDW.0>
25.9494

>  <SCORE.INTRA.norm>
-1.04936

>  <SCORE.RESTR>
0

>  <SCORE.RESTR.CAVITY>
0

>  <SCORE.RESTR.norm>
0

>  <SCORE.SYSTEM>
-6.64115

>  <SCORE.SYSTEM.CONST>
0

>  <SCORE.SYSTEM.DIHEDRAL>
6.09148

>  <SCORE.SYSTEM.POLAR>
-3.68651

>  <SCORE.SYSTEM.VDW>
2.84726

>  <SCORE.SYSTEM.norm>
-0.201247

>  <SCORE.heavy>
33

>  <SCORE.norm>
-1.80452

$$$$
F3008-0038
  rDOCK(R)          3D
libRbt.so/2013.1/901 2013/11/27
 33 37  0  0  0  0  0  0  0  0999 V2000
  -20.4727   16.8057  -16.0252 O   0  0  0  0  0  0
  -20.8179   18.0094  -16.0323 C   0  0  0  0  0  0
  -22.4225   18.6066  -15.3890 C   0  0  0  0  0  0
  -23.0854   19.0347  -14.0581 O   0  0  0  0  0  0
  -24.2680   19.3423  -13.3519 C   0  0  0  0  0  0
  -24.7680   19.0990  -12.0038 C   0  0  0  0  0  0
  -26.0882   19.4206  -11.5887 C   0  0  0  0  0  0
  -26.9629   20.0529  -12.4357 C   0  0  0  0  0  0
  -26.5080   20.3973  -13.6999 C   0  0  0  0  0  0
  -25.2024   20.0451  -14.1477 C   0  0  0  0  0  0
  -24.0031   18.4871  -10.8384 C   0  0  0  0  0  0
  -22.6292   17.9302  -11.2600 C   0  0  0  0  0  0
  -21.9157   19.2054  -11.4654 C   0  0  0  0  0  0
  -22.5255   20.1670  -10.8287 N   0  0  0  0  0  0
  -23.6974   19.6100  -10.0754 N   0  0  0  0  0  0
  -24.6211   20.3657   -9.1876 C   0  0  0  0  0  0
  -25.1157   20.0493   -8.1221 O   0  0  0  0  0  0
  -25.1455   21.7059   -9.5435 C   0  0  0  0  0  0
  -24.8615   22.3411  -10.7171 C   0  0  0  0  0  0
  -25.2176   23.6787  -10.8943 C   0  0  0  0  0  0
  -25.7804   24.4149   -9.8466 C   0  0  0  0  0  0
  -25.9977   23.8228   -8.6118 C   0  0  0  0  0  0
  -25.6904   22.4719   -8.4528 C   0  0  0  0  0  0
  -20.6545   19.4132  -12.1557 C   0  0  0  0  0  0
  -19.8867   18.5034  -12.8806 C   0  0  0  0  0  0
  -18.7903   19.1143  -13.5657 C   0  0  0  0  0  0
  -18.7046   20.4594  -13.2905 C   0  0  0  0  0  0
  -19.9411   20.9721  -12.2225 S   0  0  0  0  0  0
  -19.7419   18.6444  -16.5753 N   0  0  0  0  0  0
  -18.6551   17.7004  -16.9525 C   0  0  0  0  0  0
  -17.4840   18.5216  -17.3606 C   0  0  0  0  0  0
  -18.1777   19.7879  -17.8341 C   0  0  0  0  0  0
  -19.3453   19.9901  -16.8468 C   0  0  0  0  0  0
  1  2  2  0  0  0
  2  3  1  0  0  0
  2 29  1  0  0  0
  3  4  1  0  0  0
  4  5  1  0  0  0
  5  6  2  0  0  0
  5 10  1  0  0  0
  6  7  1  0  0  0
  6 11  1  0  0  0
  7  8  2  0  0  0
  8  9  1  0  0  0
  9 10  2  0  0  0
 11 12  1  0  0  0
 11 15  1  0  0  0
 12 13  1  0  0  0
 13 14  2  0  0  0
 13 24  1  0  0  0
 14 15  1  0  0  0
 15 16  1  0  0  0
 16 17  2  0  0  0
 16 18  1  0  0  0
 18 19  2  0  0  0
 18 23  1  0  0  0
 19 20  1  0  0  0
 20 21  2  0  0  0
 21 22  1  0  0  0
 22 23  2  0  0  0
 24 25  2  0  0  0
 24 28  1  0  0  0
 25 26  1  0  0  0
 26 27  2  0  0  0
 27 28  1  0  0  0
 29 30  1  0  0  0
 29 33  1  0  0  0
 30 31  1  0  0  0
 31 32  1  0  0  0
 32 33  1  0  0  0
M  END
>  <CHROM.0>
-61.99434576,-70.67364039,-160.72055638,63.75954699,167.87107993,-178.79290771
-35.55438683,-52.86620580

>  <CHROM.1>
84.99329875,-167.38759126,141.63264197,-8.26546789,6.33600672,70.40970905
1.87419939,-22.54146044,19.94829053,-12.70973966,0.81900921,-0.11109251,-2.11397704

>  <Name>
F3008-0038

>  <RI>
3.96271e+07

>  <Rbt.Current_Directory>
/home/adria/Escritorio/rDock_CMTR_LC/2pxcA_model/inputs_sah

>  <Rbt.Executable>
rbdock ($Id: //depot/dev/client3/rdock/2013.1/src/exe/rbdock.cxx#4 $)

>  <Rbt.Library>
libRbt.so (2013.1, Build901 2013/11/27)

>  <Rbt.Parameter_File>
/home/adria/Escritorio/rDock_2013.1_src/data/scripts/dock.prm

>  <Rbt.Receptor>
sah_rdock.prm

>  <SCORE>
-44.5401

>  <SCORE.INTER>
-8.27261

>  <SCORE.INTER.CONST>
1

>  <SCORE.INTER.POLAR>
0

>  <SCORE.INTER.REPUL>
0

>  <SCORE.INTER.ROT>
7

>  <SCORE.INTER.VDW>
-20.6726

>  <SCORE.INTER.norm>
-0.250685

>  <SCORE.INTRA>
-36.007

>  <SCORE.INTRA.DIHEDRAL>
-9.97303

>  <SCORE.INTRA.DIHEDRAL.0>
15.7959

>  <SCORE.INTRA.POLAR>
0

>  <SCORE.INTRA.POLAR.0>
0

>  <SCORE.INTRA.REPUL>
0

>  <SCORE.INTRA.REPUL.0>
0

>  <SCORE.INTRA.VDW>
-31.0205

>  <SCORE.INTRA.VDW.0>
25.9494

>  <SCORE.INTRA.norm>
-1.09112

>  <SCORE.RESTR>
0

>  <SCORE.RESTR.CAVITY>
0

>  <SCORE.RESTR.norm>
0

>  <SCORE.SYSTEM>
-0.260428

>  <SCORE.SYSTEM.CONST>
0

>  <SCORE.SYSTEM.DIHEDRAL>
6.51682

>  <SCORE.SYSTEM.POLAR>
-3.525

>  <SCORE.SYSTEM.REPUL>
0.0385478

>  <SCORE.SYSTEM.VDW>
8.27343

>  <SCORE.SYSTEM.norm>
-0.00789177

>  <SCORE.heavy>
33

>  <SCORE.norm>
-1.3497

$$$$
F3008-0038
  rDOCK(R)          3D
libRbt.so/2013.1/901 2013/11/27
 33 37  0  0  0  0  0  0  0  0999 V2000
  -19.0058   17.8288  -13.3719 O   0  0  0  0  0  0
  -19.2400   19.0395  -13.5900 C   0  0  0  0  0  0
  -19.8855   20.1903  -12.3235 C   0  0  0  0  0  0
  -21.1765   20.9660  -11.9686 O   0  0  0  0  0  0
  -22.0523   22.0336  -12.2595 C   0  0  0  0  0  0
  -23.4780   22.1640  -12.5367 C   0  0  0  0  0  0
  -24.0900   23.3832  -12.9341 C   0  0  0  0  0  0
  -23.3659   24.5455  -13.0159 C   0  0  0  0  0  0
  -22.0240   24.5003  -12.6679 C   0  0  0  0  0  0
  -21.3843   23.2794  -12.3085 C   0  0  0  0  0  0
  -24.5327   21.0695  -12.4516 C   0  0  0  0  0  0
  -24.7300   20.3328  -13.7910 C   0  0  0  0  0  0
  -23.4760   19.5555  -13.8144 C   0  0  0  0  0  0
  -22.9849   19.4617  -12.6095 N   0  0  0  0  0  0
  -23.9076   20.1322  -11.6347 N   0  0  0  0  0  0
  -23.7371   20.2055  -10.1589 C   0  0  0  0  0  0
  -23.2254   19.4134   -9.3902 O   0  0  0  0  0  0
  -24.2609   21.3349   -9.3541 C   0  0  0  0  0  0
  -23.5347   21.9814   -8.3969 C   0  0  0  0  0  0
  -24.1561   22.8915   -7.5408 C   0  0  0  0  0  0
  -25.5407   23.0846   -7.5836 C   0  0  0  0  0  0
  -26.3197   22.3743   -8.4843 C   0  0  0  0  0  0
  -25.6906   21.5048   -9.3746 C   0  0  0  0  0  0
  -22.8828   18.8657  -14.9470 C   0  0  0  0  0  0
  -22.9816   19.1575  -16.3064 C   0  0  0  0  0  0
  -22.1171   18.3570  -17.1168 C   0  0  0  0  0  0
  -21.4347   17.4269  -16.3674 C   0  0  0  0  0  0
  -21.8333   17.5302  -14.7052 S   0  0  0  0  0  0
  -18.8784   19.2023  -14.8933 N   0  0  0  0  0  0
  -18.4038   17.9360  -15.5143 C   0  0  0  0  0  0
  -17.8774   18.2799  -16.8623 C   0  0  0  0  0  0
  -18.6886   19.5266  -17.1732 C   0  0  0  0  0  0
  -18.7867   20.2778  -15.8297 C   0  0  0  0  0  0
  1  2  2  0  0  0
  2  3  1  0  0  0
  2 29  1  0  0  0
  3  4  1  0  0  0
  4  5  1  0  0  0
  5  6  2  0  0  0
  5 10  1  0  0  0
  6  7  1  0  0  0
  6 11  1  0  0  0
  7  8  2  0  0  0
  8  9  1  0  0  0
  9 10  2  0  0  0
 11 12  1  0  0  0
 11 15  1  0  0  0
 12 13  1  0  0  0
 13 14  2  0  0  0
 13 24  1  0  0  0
 14 15  1  0  0  0
 15 16  1  0  0  0
 16 17  2  0  0  0
 16 18  1  0  0  0
 18 19  2  0  0  0
 18 23  1  0  0  0
 19 20  1  0  0  0
 20 21  2  0  0  0
 21 22  1  0  0  0
 22 23  2  0  0  0
 24 25  2  0  0  0
 24 28  1  0  0  0
 25 26  1  0  0  0
 26 27  2  0  0  0
 27 28  1  0  0  0
 29 30  1  0  0  0
 29 33  1  0  0  0
 30 31  1  0  0  0
 31 32  1  0  0  0
 32 33  1  0  0  0
M  END
>  <CHROM.0>
-175.80524880,63.21413665,103.65529802,67.73013586,-30.21397094,-172.81679586
81.80449584,-159.11357119

>  <CHROM.1>
-109.18794348,-72.58791117,124.75806347,-91.27913549,28.43975613,178.50919144
-133.47090908,-22.20895519,20.37403872,-12.86357831,0.85202979,-0.60068584
-2.56759554

>  <Name>
F3008-0038

>  <RI>
3.96271e+07

>  <Rbt.Current_Directory>
/home/adria/Escritorio/rDock_CMTR_LC/2pxcA_model/inputs_sah

>  <Rbt.Executable>
rbdock ($Id: //depot/dev/client3/rdock/2013.1/src/exe/rbdock.cxx#4 $)

>  <Rbt.Library>
libRbt.so (2013.1, Build901 2013/11/27)

>  <Rbt.Parameter_File>
/home/adria/Escritorio/rDock_2013.1_src/data/scripts/dock.prm

>  <Rbt.Receptor>
sah_rdock.prm

>  <SCORE>
-53.4813

>  <SCORE.INTER>
-15.6098

>  <SCORE.INTER.CONST>
1

>  <SCORE.INTER.POLAR>
-1.5695

>  <SCORE.INTER.REPUL>
0

>  <SCORE.INTER.ROT>
7

>  <SCORE.INTER.VDW>
-22.6735

>  <SCORE.INTER.norm>
-0.473025

>  <SCORE.INTRA>
-31.8229

>  <SCORE.INTRA.DIHEDRAL>
1.21006

>  <SCORE.INTRA.DIHEDRAL.0>
15.7959

>  <SCORE.INTRA.POLAR>
0

>  <SCORE.INTRA.POLAR.0>
0

>  <SCORE.INTRA.REPUL>
0

>  <SCORE.INTRA.REPUL.0>
0

>  <SCORE.INTRA.VDW>
-32.4279

>  <SCORE.INTRA.VDW.0>
25.9494

>  <SCORE.INTRA.norm>
-0.96433

>  <SCORE.RESTR>
0

>  <SCORE.RESTR.CAVITY>
0

>  <SCORE.RESTR.norm>
0

>  <SCORE.SYSTEM>
-6.04854

>  <SCORE.SYSTEM.CONST>
0

>  <SCORE.SYSTEM.DIHEDRAL>
8.75554

>  <SCORE.SYSTEM.POLAR>
-4.06119

>  <SCORE.SYSTEM.VDW>
3.38174

>  <SCORE.SYSTEM.norm>
-0.183289

>  <SCORE.heavy>
33

>  <SCORE.norm>
-1.62064

$$$$
F3008-0038
  rDOCK(R)          3D
libRbt.so/2013.1/901 2013/11/27
 33 37  0  0  0  0  0  0  0  0999 V2000
  -19.7941   17.8991  -13.0613 O   0  0  0  0  0  0
  -20.3619   18.9548  -13.4238 C   0  0  0  0  0  0
  -21.9761   19.5126  -12.7696 C   0  0  0  0  0  0
  -22.6689   20.7929  -12.2451 O   0  0  0  0  0  0
  -23.0476   22.1324  -12.4775 C   0  0  0  0  0  0
  -24.2997   22.8265  -12.7553 C   0  0  0  0  0  0
  -24.3734   24.2070  -13.0832 C   0  0  0  0  0  0
  -23.2498   24.9942  -13.0912 C   0  0  0  0  0  0
  -22.0436   24.4075  -12.7382 C   0  0  0  0  0  0
  -21.9439   23.0165  -12.4481 C   0  0  0  0  0  0
  -25.7008   22.2313  -12.7419 C   0  0  0  0  0  0
  -26.3232   22.1524  -14.1498 C   0  0  0  0  0  0
  -25.5189   21.0427  -14.6965 C   0  0  0  0  0  0
  -24.9923   20.3503  -13.7243 N   0  0  0  0  0  0
  -25.4455   20.9052  -12.4061 N   0  0  0  0  0  0
  -25.1109   20.3734  -11.0579 C   0  0  0  0  0  0
  -25.0023   19.2236  -10.6753 O   0  0  0  0  0  0
  -24.8948   21.2565   -9.8870 C   0  0  0  0  0  0
  -25.3896   22.5248   -9.7957 C   0  0  0  0  0  0
  -24.9749   23.3664   -8.7628 C   0  0  0  0  0  0
  -23.9804   22.9631   -7.8657 C   0  0  0  0  0  0
  -23.3919   21.7135   -7.9876 C   0  0  0  0  0  0
  -23.8451   20.8537   -8.9876 C   0  0  0  0  0  0
  -25.3873   20.6462  -16.0879 C   0  0  0  0  0  0
  -24.8738   19.4659  -16.6227 C   0  0  0  0  0  0
  -25.0666   19.3592  -18.0356 C   0  0  0  0  0  0
  -25.6557   20.4886  -18.5552 C   0  0  0  0  0  0
  -25.9755   21.6561  -17.3439 S   0  0  0  0  0  0
  -19.4888   19.4922  -14.3209 N   0  0  0  0  0  0
  -18.2863   18.6396  -14.5248 C   0  0  0  0  0  0
  -17.3420   19.4111  -15.3766 C   0  0  0  0  0  0
  -18.3099   20.3043  -16.1346 C   0  0  0  0  0  0
  -19.3867   20.6865  -15.0987 C   0  0  0  0  0  0
  1  2  2  0  0  0
  2  3  1  0  0  0
  2 29  1  0  0  0
  3  4  1  0  0  0
  4  5  1  0  0  0
  5  6  2  0  0  0
  5 10  1  0  0  0
  6  7  1  0  0  0
  6 11  1  0  0  0
  7  8  2  0  0  0
  8  9  1  0  0  0
  9 10  2  0  0  0
 11 12  1  0  0  0
 11 15  1  0  0  0
 12 13  1  0  0  0
 13 14  2  0  0  0
 13 24  1  0  0  0
 14 15  1  0  0  0
 15 16  1  0  0  0
 16 17  2  0  0  0
 16 18  1  0  0  0
 18 19  2  0  0  0
 18 23  1  0  0  0
 19 20  1  0  0  0
 20 21  2  0  0  0
 21 22  1  0  0  0
 22 23  2  0  0  0
 24 25  2  0  0  0
 24 28  1  0  0  0
 25 26  1  0  0  0
 26 27  2  0  0  0
 27 28  1  0  0  0
 29 30  1  0  0  0
 29 33  1  0  0  0
 30 31  1  0  0  0
 31 32  1  0  0  0
 32 33  1  0  0  0
M  END
>  <CHROM.0>
-179.83335256,-74.20401646,110.29460370,62.23463616,-31.41338379,-179.39455144
81.93548528,-161.36056734

>  <CHROM.1>
135.02708310,56.56544331,106.89551389,-111.08831289,-165.42266051,172.18195751
22.43665413,-23.32054785,21.11464158,-13.29831569,-1.00822923,-0.32287189
1.35499707

>  <Name>
F3008-0038

>  <RI>
3.96271e+07

>  <Rbt.Current_Directory>
/home/adria/Escritorio/rDock_CMTR_LC/2pxcA_model/inputs_sah

>  <Rbt.Executable>
rbdock ($Id: //depot/dev/client3/rdock/2013.1/src/exe/rbdock.cxx#4 $)

>  <Rbt.Library>
libRbt.so (2013.1, Build901 2013/11/27)

>  <Rbt.Parameter_File>
/home/adria/Escritorio/rDock_2013.1_src/data/scripts/dock.prm

>  <Rbt.Receptor>
sah_rdock.prm

>  <SCORE>
-52.6365

>  <SCORE.INTER>
-13.5116

>  <SCORE.INTER.CONST>
1

>  <SCORE.INTER.POLAR>
-0.824621

>  <SCORE.INTER.REPUL>
0

>  <SCORE.INTER.ROT>
7

>  <SCORE.INTER.VDW>
-23.1079

>  <SCORE.INTER.norm>
-0.409441

>  <SCORE.INTRA>
-32.1704

>  <SCORE.INTRA.DIHEDRAL>
-4.84449

>  <SCORE.INTRA.DIHEDRAL.0>
15.7959

>  <SCORE.INTRA.POLAR>
0

>  <SCORE.INTRA.POLAR.0>
0

>  <SCORE.INTRA.REPUL>
0

>  <SCORE.INTRA.REPUL.0>
0

>  <SCORE.INTRA.VDW>
-29.7481

>  <SCORE.INTRA.VDW.0>
25.9494

>  <SCORE.INTRA.norm>
-0.97486

>  <SCORE.RESTR>
0

>  <SCORE.RESTR.CAVITY>
0

>  <SCORE.RESTR.norm>
0

>  <SCORE.SYSTEM>
-6.95454

>  <SCORE.SYSTEM.CONST>
0

>  <SCORE.SYSTEM.DIHEDRAL>
9.2354

>  <SCORE.SYSTEM.POLAR>
-4.54223

>  <SCORE.SYSTEM.REPUL>
0.0406144

>  <SCORE.SYSTEM.VDW>
3.66829

>  <SCORE.SYSTEM.norm>
-0.210744

>  <SCORE.heavy>
33

>  <SCORE.norm>
-1.59505

$$$$
F3008-0038
  rDOCK(R)          3D
libRbt.so/2013.1/901 2013/11/27
 33 37  0  0  0  0  0  0  0  0999 V2000
  -18.6615   14.5978  -17.7468 O   0  0  0  0  0  0
  -18.8802   15.1679  -16.6535 C   0  0  0  0  0  0
  -19.5641   16.8582  -16.5117 C   0  0  0  0  0  0
  -20.5326   17.6793  -15.6273 O   0  0  0  0  0  0
  -21.8380   17.8528  -15.1199 C   0  0  0  0  0  0
  -22.4138   18.3692  -13.8836 C   0  0  0  0  0  0
  -23.8003   18.3064  -13.5796 C   0  0  0  0  0  0
  -24.7016   17.8040  -14.4837 C   0  0  0  0  0  0
  -24.2214   17.3885  -15.7168 C   0  0  0  0  0  0
  -22.8302   17.4046  -16.0227 C   0  0  0  0  0  0
  -21.6724   19.0470  -12.7396 C   0  0  0  0  0  0
  -20.1487   18.8253  -12.8088 C   0  0  0  0  0  0
  -19.8376   19.7095  -13.9483 C   0  0  0  0  0  0
  -20.7962   20.5784  -14.1153 N   0  0  0  0  0  0
  -21.8364   20.3936  -13.0500 N   0  0  0  0  0  0
  -23.0633   21.2120  -12.8571 C   0  0  0  0  0  0
  -24.2131   20.8647  -12.6636 O   0  0  0  0  0  0
  -23.0501   22.6926  -12.9316 C   0  0  0  0  0  0
  -21.9073   23.4373  -12.9632 C   0  0  0  0  0  0
  -21.9703   24.8244  -12.8239 C   0  0  0  0  0  0
  -23.1855   25.4627  -12.5549 C   0  0  0  0  0  0
  -24.3516   24.7238  -12.4259 C   0  0  0  0  0  0
  -24.2954   23.3438  -12.6180 C   0  0  0  0  0  0
  -18.6156   19.7459  -14.7331 C   0  0  0  0  0  0
  -17.6181   18.7800  -14.8553 C   0  0  0  0  0  0
  -16.6478   19.0985  -15.8562 C   0  0  0  0  0  0
  -16.8861   20.3296  -16.4220 C   0  0  0  0  0  0
  -18.2707   21.0823  -15.7522 S   0  0  0  0  0  0
  -18.5184   14.2332  -15.7308 N   0  0  0  0  0  0
  -18.0051   12.9848  -16.3572 C   0  0  0  0  0  0
  -17.8162   11.9927  -15.2652 C   0  0  0  0  0  0
  -17.5767   12.9161  -14.0824 C   0  0  0  0  0  0
  -18.5364   14.1022  -14.3080 C   0  0  0  0  0  0
  1  2  2  0  0  0
  2  3  1  0  0  0
  2 29  1  0  0  0
  3  4  1  0  0  0
  4  5  1  0  0  0
  5  6  2  0  0  0
  5 10  1  0  0  0
  6  7  1  0  0  0
  6 11  1  0  0  0
  7  8  2  0  0  0
  8  9  1  0  0  0
  9 10  2  0  0  0
 11 12  1  0  0  0
 11 15  1  0  0  0
 12 13  1  0  0  0
 13 14  2  0  0  0
 13 24  1  0  0  0
 14 15  1  0  0  0
 15 16  1  0  0  0
 16 17  2  0  0  0
 16 18  1  0  0  0
 18 19  2  0  0  0
 18 23  1  0  0  0
 19 20  1  0  0  0
 20 21  2  0  0  0
 21 22  1  0  0  0
 22 23  2  0  0  0
 24 25  2  0  0  0
 24 28  1  0  0  0
 25 26  1  0  0  0
 26 27  2  0  0  0
 27 28  1  0  0  0
 29 30  1  0  0  0
 29 33  1  0  0  0
 30 31  1  0  0  0
 31 32  1  0  0  0
 32 33  1  0  0  0
M  END
>  <CHROM.0>
40.31487476,-165.61712478,-122.91812635,62.79678343,-31.51316161,-178.74275150
-35.98462270,-158.80129778

>  <CHROM.1>
142.80584423,-60.54934177,148.00146800,-15.46228996,18.72260253,-16.59260089
-11.02060026,-20.66171381,18.84876833,-14.53857078,-1.06524811,0.29049620
0.16761718

>  <Name>
F3008-0038

>  <RI>
3.96271e+07

>  <Rbt.Current_Directory>
/home/adria/Escritorio/rDock_CMTR_LC/2pxcA_model/inputs_sah

>  <Rbt.Executable>
rbdock ($Id: //depot/dev/client3/rdock/2013.1/src/exe/rbdock.cxx#4 $)

>  <Rbt.Library>
libRbt.so (2013.1, Build901 2013/11/27)

>  <Rbt.Parameter_File>
/home/adria/Escritorio/rDock_2013.1_src/data/scripts/dock.prm

>  <Rbt.Receptor>
sah_rdock.prm

>  <SCORE>
-46.1578

>  <SCORE.INTER>
-11.9382

>  <SCORE.INTER.CONST>
1

>  <SCORE.INTER.POLAR>
0

>  <SCORE.INTER.REPUL>
0.000604115

>  <SCORE.INTER.ROT>
7

>  <SCORE.INTER.VDW>
-24.3413

>  <SCORE.INTER.norm>
-0.361765

>  <SCORE.INTRA>
-32.9322

>  <SCORE.INTRA.DIHEDRAL>
-10.9308

>  <SCORE.INTRA.DIHEDRAL.0>
15.7959

>  <SCORE.INTRA.POLAR>
0

>  <SCORE.INTRA.POLAR.0>
0

>  <SCORE.INTRA.REPUL>
0

>  <SCORE.INTRA.REPUL.0>
0

>  <SCORE.INTRA.VDW>
-27.4667

>  <SCORE.INTRA.VDW.0>
25.9494

>  <SCORE.INTRA.norm>
-0.997944

>  <SCORE.RESTR>
0

>  <SCORE.RESTR.CAVITY>
0

>  <SCORE.RESTR.norm>
0

>  <SCORE.SYSTEM>
-1.28741

>  <SCORE.SYSTEM.CONST>
0

>  <SCORE.SYSTEM.DIHEDRAL>
11.5319

>  <SCORE.SYSTEM.POLAR>
-4.12954

>  <SCORE.SYSTEM.REPUL>
0.122143

>  <SCORE.SYSTEM.VDW>
6.37636

>  <SCORE.SYSTEM.norm>
-0.0390126

>  <SCORE.heavy>
33

>  <SCORE.norm>
-1.39872

$$$$
F3008-0038
  rDOCK(R)          3D
libRbt.so/2013.1/901 2013/11/27
 33 37  0  0  0  0  0  0  0  0999 V2000
  -22.3337   24.9128  -13.3606 O   0  0  0  0  0  0
  -22.2040   23.9432  -12.5789 C   0  0  0  0  0  0
  -22.0961   22.2034  -13.1326 C   0  0  0  0  0  0
  -21.0443   21.0938  -13.3705 O   0  0  0  0  0  0
  -19.9201   20.6425  -14.0944 C   0  0  0  0  0  0
  -19.1426   19.4098  -14.1472 C   0  0  0  0  0  0
  -17.9452   19.2711  -14.8993 C   0  0  0  0  0  0
  -17.4813   20.2937  -15.6875 C   0  0  0  0  0  0
  -18.2347   21.4564  -15.7525 C   0  0  0  0  0  0
  -19.4143   21.6290  -14.9728 C   0  0  0  0  0  0
  -19.4557   18.0971  -13.4425 C   0  0  0  0  0  0
  -20.7095   18.1891  -12.5509 C   0  0  0  0  0  0
  -21.7409   18.2300  -13.6053 C   0  0  0  0  0  0
  -21.2597   17.7547  -14.7208 N   0  0  0  0  0  0
  -19.8499   17.2890  -14.5046 N   0  0  0  0  0  0
  -18.9662   16.6407  -15.5101 C   0  0  0  0  0  0
  -18.6112   17.0303  -16.6066 O   0  0  0  0  0  0
  -18.3904   15.2897  -15.3077 C   0  0  0  0  0  0
  -18.6946   14.4902  -14.2448 C   0  0  0  0  0  0
  -17.9622   13.3256  -14.0112 C   0  0  0  0  0  0
  -16.8504   13.0087  -14.7984 C   0  0  0  0  0  0
  -16.4599   13.8488  -15.8300 C   0  0  0  0  0  0
  -17.2244   14.9844  -16.0955 C   0  0  0  0  0  0
  -23.1354   18.6125  -13.4656 C   0  0  0  0  0  0
  -24.1380   18.6562  -14.4328 C   0  0  0  0  0  0
  -25.4339   18.9163  -13.8869 C   0  0  0  0  0  0
  -25.3794   19.1359  -12.5300 C   0  0  0  0  0  0
  -23.7800   19.0207  -11.9289 S   0  0  0  0  0  0
  -22.1481   24.5311  -11.3513 N   0  0  0  0  0  0
  -22.2876   26.0109  -11.4226 C   0  0  0  0  0  0
  -22.0334   26.5410  -10.0562 C   0  0  0  0  0  0
  -22.4405   25.3468   -9.2093 C   0  0  0  0  0  0
  -21.9462   24.1174   -9.9985 C   0  0  0  0  0  0
  1  2  2  0  0  0
  2  3  1  0  0  0
  2 29  1  0  0  0
  3  4  1  0  0  0
  4  5  1  0  0  0
  5  6  2  0  0  0
  5 10  1  0  0  0
  6  7  1  0  0  0
  6 11  1  0  0  0
  7  8  2  0  0  0
  8  9  1  0  0  0
  9 10  2  0  0  0
 11 12  1  0  0  0
 11 15  1  0  0  0
 12 13  1  0  0  0
 13 14  2  0  0  0
 13 24  1  0  0  0
 14 15  1  0  0  0
 15 16  1  0  0  0
 16 17  2  0  0  0
 16 18  1  0  0  0
 18 19  2  0  0  0
 18 23  1  0  0  0
 19 20  1  0  0  0
 20 21  2  0  0  0
 21 22  1  0  0  0
 22 23  2  0  0  0
 24 25  2  0  0  0
 24 28  1  0  0  0
 25 26  1  0  0  0
 26 27  2  0  0  0
 27 28  1  0  0  0
 29 30  1  0  0  0
 29 33  1  0  0  0
 30 31  1  0  0  0
 31 32  1  0  0  0
 32 33  1  0  0  0
M  END
>  <CHROM.0>
41.06147532,-72.92939239,73.15000022,-66.81938294,-31.46870389,57.67557950
-36.04821884,-167.08706291

>  <CHROM.1>
101.27050344,-64.20003750,-174.69581239,-2.89126831,-179.58868733,-93.07596557
5.07100275,-20.72423898,19.58776675,-13.58232459,-2.02990666,-0.36359880
-2.91941449

>  <Name>
F3008-0038

>  <RI>
3.96271e+07

>  <Rbt.Current_Directory>
/home/adria/Escritorio/rDock_CMTR_LC/2pxcA_model/inputs_sah

>  <Rbt.Executable>
rbdock ($Id: //depot/dev/client3/rdock/2013.1/src/exe/rbdock.cxx#4 $)

>  <Rbt.Library>
libRbt.so (2013.1, Build901 2013/11/27)

>  <Rbt.Parameter_File>
/home/adria/Escritorio/rDock_2013.1_src/data/scripts/dock.prm

>  <Rbt.Receptor>
sah_rdock.prm

>  <SCORE>
-49.827

>  <SCORE.INTER>
-12.5009

>  <SCORE.INTER.CONST>
1

>  <SCORE.INTER.POLAR>
-0.834142

>  <SCORE.INTER.REPUL>
0.0737271

>  <SCORE.INTER.ROT>
7

>  <SCORE.INTER.VDW>
-22.4335

>  <SCORE.INTER.norm>
-0.378816

>  <SCORE.INTRA>
-34.1033

>  <SCORE.INTRA.DIHEDRAL>
-12.11

>  <SCORE.INTRA.DIHEDRAL.0>
15.7959

>  <SCORE.INTRA.POLAR>
0

>  <SCORE.INTRA.POLAR.0>
0

>  <SCORE.INTRA.REPUL>
0

>  <SCORE.INTRA.REPUL.0>
0

>  <SCORE.INTRA.VDW>
-28.0483

>  <SCORE.INTRA.VDW.0>
25.9494

>  <SCORE.INTRA.norm>
-1.03343

>  <SCORE.RESTR>
0

>  <SCORE.RESTR.CAVITY>
0

>  <SCORE.RESTR.norm>
0

>  <SCORE.SYSTEM>
-3.22272

>  <SCORE.SYSTEM.CONST>
0

>  <SCORE.SYSTEM.DIHEDRAL>
7.87631

>  <SCORE.SYSTEM.POLAR>
-4.0032

>  <SCORE.SYSTEM.REPUL>
0.157984

>  <SCORE.SYSTEM.VDW>
5.66008

>  <SCORE.SYSTEM.norm>
-0.0976583

>  <SCORE.heavy>
33

>  <SCORE.norm>
-1.50991

$$$$
F3008-0038
  rDOCK(R)          3D
libRbt.so/2013.1/901 2013/11/27
 33 37  0  0  0  0  0  0  0  0999 V2000
  -27.1346   20.7995  -10.3311 O   0  0  0  0  0  0
  -26.1412   20.9275  -11.0828 C   0  0  0  0  0  0
  -25.5929   19.6432  -12.2639 C   0  0  0  0  0  0
  -24.3560   19.2535  -13.1080 O   0  0  0  0  0  0
  -22.9788   18.9479  -13.1471 C   0  0  0  0  0  0
  -22.1338   18.0502  -13.9261 C   0  0  0  0  0  0
  -20.7531   17.8469  -13.6595 C   0  0  0  0  0  0
  -20.1109   18.5513  -12.6728 C   0  0  0  0  0  0
  -20.8440   19.4917  -11.9643 C   0  0  0  0  0  0
  -22.2381   19.6785  -12.1889 C   0  0  0  0  0  0
  -22.5513   17.2040  -15.1208 C   0  0  0  0  0  0
  -23.9938   17.4972  -15.5778 C   0  0  0  0  0  0
  -23.7769   18.8202  -16.1941 C   0  0  0  0  0  0
  -22.5149   18.9772  -16.4846 N   0  0  0  0  0  0
  -21.7575   17.7300  -16.1356 N   0  0  0  0  0  0
  -20.3073   17.4826  -16.3548 C   0  0  0  0  0  0
  -19.7256   16.4583  -16.6592 O   0  0  0  0  0  0
  -19.2841   18.5383  -16.1650 C   0  0  0  0  0  0
  -19.5772   19.8146  -15.7818 C   0  0  0  0  0  0
  -18.5932   20.8031  -15.8249 C   0  0  0  0  0  0
  -17.3253   20.5293  -16.3482 C   0  0  0  0  0  0
  -17.0246   19.2646  -16.8307 C   0  0  0  0  0  0
  -17.9918   18.2644  -16.7381 C   0  0  0  0  0  0
  -24.7833   19.8003  -16.5642 C   0  0  0  0  0  0
  -25.8196   20.3312  -15.7980 C   0  0  0  0  0  0
  -26.5056   21.4044  -16.4480 C   0  0  0  0  0  0
  -26.0257   21.6188  -17.7193 C   0  0  0  0  0  0
  -24.7574   20.5377  -18.1131 S   0  0  0  0  0  0
  -25.6830   22.1771  -10.7925 N   0  0  0  0  0  0
  -26.4849   22.8445   -9.7314 C   0  0  0  0  0  0
  -26.0017   24.2480   -9.6351 C   0  0  0  0  0  0
  -24.5714   24.0889  -10.1229 C   0  0  0  0  0  0
  -24.6570   23.0534  -11.2627 C   0  0  0  0  0  0
  1  2  2  0  0  0
  2  3  1  0  0  0
  2 29  1  0  0  0
  3  4  1  0  0  0
  4  5  1  0  0  0
  5  6  2  0  0  0
  5 10  1  0  0  0
  6  7  1  0  0  0
  6 11  1  0  0  0
  7  8  2  0  0  0
  8  9  1  0  0  0
  9 10  2  0  0  0
 11 12  1  0  0  0
 11 15  1  0  0  0
 12 13  1  0  0  0
 13 14  2  0  0  0
 13 24  1  0  0  0
 14 15  1  0  0  0
 15 16  1  0  0  0
 16 17  2  0  0  0
 16 18  1  0  0  0
 18 19  2  0  0  0
 18 23  1  0  0  0
 19 20  1  0  0  0
 20 21  2  0  0  0
 21 22  1  0  0  0
 22 23  2  0  0  0
 24 25  2  0  0  0
 24 28  1  0  0  0
 25 26  1  0  0  0
 26 27  2  0  0  0
 27 28  1  0  0  0
 29 30  1  0  0  0
 29 33  1  0  0  0
 30 31  1  0  0  0
 31 32  1  0  0  0
 32 33  1  0  0  0
M  END
>  <CHROM.0>
-177.19882802,-73.84902936,76.31312339,-61.09831244,-32.20566131,-176.05637264
-36.90901708,-160.22235317

>  <CHROM.1>
-163.33124335,55.55163669,145.19016874,6.67588286,51.48900588,65.97239410
-0.21287699,-22.92351221,19.88774327,-14.36321312,-2.40207932,0.28639695
-1.88524423

>  <Name>
F3008-0038

>  <RI>
3.96271e+07

>  <Rbt.Current_Directory>
/home/adria/Escritorio/rDock_CMTR_LC/2pxcA_model/inputs_sah

>  <Rbt.Executable>
rbdock ($Id: //depot/dev/client3/rdock/2013.1/src/exe/rbdock.cxx#4 $)

>  <Rbt.Library>
libRbt.so (2013.1, Build901 2013/11/27)

>  <Rbt.Parameter_File>
/home/adria/Escritorio/rDock_2013.1_src/data/scripts/dock.prm

>  <Rbt.Receptor>
sah_rdock.prm

>  <SCORE>
-46.6128

>  <SCORE.INTER>
-9.28268

>  <SCORE.INTER.CONST>
1

>  <SCORE.INTER.POLAR>
0

>  <SCORE.INTER.REPUL>
0.0979481

>  <SCORE.INTER.ROT>
7

>  <SCORE.INTER.VDW>
-22.1724

>  <SCORE.INTER.norm>
-0.281293

>  <SCORE.INTRA>
-30.221

>  <SCORE.INTRA.DIHEDRAL>
-5.04164

>  <SCORE.INTRA.DIHEDRAL.0>
15.7959

>  <SCORE.INTRA.POLAR>
0

>  <SCORE.INTRA.POLAR.0>
0

>  <SCORE.INTRA.REPUL>
0

>  <SCORE.INTRA.REPUL.0>
0

>  <SCORE.INTRA.VDW>
-27.7002

>  <SCORE.INTRA.VDW.0>
25.9494

>  <SCORE.INTRA.norm>
-0.915788

>  <SCORE.RESTR>
0

>  <SCORE.RESTR.CAVITY>
0

>  <SCORE.RESTR.norm>
0

>  <SCORE.SYSTEM>
-7.10911

>  <SCORE.SYSTEM.CONST>
0

>  <SCORE.SYSTEM.DIHEDRAL>
6.50427

>  <SCORE.SYSTEM.POLAR>
-4.05805

>  <SCORE.SYSTEM.REPUL>
0.0400163

>  <SCORE.SYSTEM.VDW>
3.23604

>  <SCORE.SYSTEM.norm>
-0.215428

>  <SCORE.heavy>
33

>  <SCORE.norm>
-1.41251

$$$$
F3008-0038
  rDOCK(R)          3D
libRbt.so/2013.1/901 2013/11/27
 33 37  0  0  0  0  0  0  0  0999 V2000
  -18.4330   14.8991  -14.5933 O   0  0  0  0  0  0
  -18.8149   15.7078  -15.4698 C   0  0  0  0  0  0
  -20.0116   17.0542  -15.1529 C   0  0  0  0  0  0
  -20.4336   18.0306  -14.0291 O   0  0  0  0  0  0
  -21.3669   18.9732  -13.5474 C   0  0  0  0  0  0
  -21.2893   20.2503  -12.8478 C   0  0  0  0  0  0
  -22.4278   20.9446  -12.3572 C   0  0  0  0  0  0
  -23.6962   20.4712  -12.5792 C   0  0  0  0  0  0
  -23.8345   19.3101  -13.3251 C   0  0  0  0  0  0
  -22.7035   18.5783  -13.7883 C   0  0  0  0  0  0
  -20.0316   21.0472  -12.5301 C   0  0  0  0  0  0
  -18.7536   20.3744  -13.0684 C   0  0  0  0  0  0
  -18.9382   20.6448  -14.5072 C   0  0  0  0  0  0
  -19.7719   21.6344  -14.6733 N   0  0  0  0  0  0
  -20.1926   22.1699  -13.3364 N   0  0  0  0  0  0
  -21.0946   23.3263  -13.0883 C   0  0  0  0  0  0
  -21.9991   23.7730  -13.7684 O   0  0  0  0  0  0
  -20.9636   24.1935  -11.8932 C   0  0  0  0  0  0
  -21.6688   25.3480  -11.7164 C   0  0  0  0  0  0
  -21.3442   26.2150  -10.6722 C   0  0  0  0  0  0
  -20.2380   25.9669   -9.8529 C   0  0  0  0  0  0
  -19.4461   24.8486  -10.0646 C   0  0  0  0  0  0
  -19.8030   23.9559  -11.0746 C   0  0  0  0  0  0
  -18.2394   20.0272  -15.6211 C   0  0  0  0  0  0
  -17.0794   19.2544  -15.6137 C   0  0  0  0  0  0
  -16.7848   18.6718  -16.8859 C   0  0  0  0  0  0
  -17.6832   19.0708  -17.8483 C   0  0  0  0  0  0
  -18.8693   20.1303  -17.2135 S   0  0  0  0  0  0
  -18.1199   15.3261  -16.5775 N   0  0  0  0  0  0
  -17.2533   14.1430  -16.3254 C   0  0  0  0  0  0
  -16.4247   13.9397  -17.5439 C   0  0  0  0  0  0
  -17.3261   14.5502  -18.6040 C   0  0  0  0  0  0
  -17.9580   15.7810  -17.9224 C   0  0  0  0  0  0
  1  2  2  0  0  0
  2  3  1  0  0  0
  2 29  1  0  0  0
  3  4  1  0  0  0
  4  5  1  0  0  0
  5  6  2  0  0  0
  5 10  1  0  0  0
  6  7  1  0  0  0
  6 11  1  0  0  0
  7  8  2  0  0  0
  8  9  1  0  0  0
  9 10  2  0  0  0
 11 12  1  0  0  0
 11 15  1  0  0  0
 12 13  1  0  0  0
 13 14  2  0  0  0
 13 24  1  0  0  0
 14 15  1  0  0  0
 15 16  1  0  0  0
 16 17  2  0  0  0
 16 18  1  0  0  0
 18 19  2  0  0  0
 18 23  1  0  0  0
 19 20  1  0  0  0
 20 21  2  0  0  0
 21 22  1  0  0  0
 22 23  2  0  0  0
 24 25  2  0  0  0
 24 28  1  0  0  0
 25 26  1  0  0  0
 26 27  2  0  0  0
 27 28  1  0  0  0
 29 30  1  0  0  0
 29 33  1  0  0  0
 30 31  1  0  0  0
 31 32  1  0  0  0
 32 33  1  0  0  0
M  END
>  <CHROM.0>
-61.98065225,-73.83937274,-166.52899841,145.80700794,-30.58550625,-58.01694574
83.44827067,-162.57681972

>  <CHROM.1>
33.65805068,-168.39530288,-139.34480175,1.41129288,-14.02280959,-121.49003957
172.00440344,-19.72772147,19.88297223,-14.34813137,1.17715482,-0.58711713
-2.80365114

>  <Name>
F3008-0038

>  <RI>
3.96271e+07

>  <Rbt.Current_Directory>
/home/adria/Escritorio/rDock_CMTR_LC/2pxcA_model/inputs_sah

>  <Rbt.Executable>
rbdock ($Id: //depot/dev/client3/rdock/2013.1/src/exe/rbdock.cxx#4 $)

>  <Rbt.Library>
libRbt.so (2013.1, Build901 2013/11/27)

>  <Rbt.Parameter_File>
/home/adria/Escritorio/rDock_2013.1_src/data/scripts/dock.prm

>  <Rbt.Receptor>
sah_rdock.prm

>  <SCORE>
-55.4452

>  <SCORE.INTER>
-16.8946

>  <SCORE.INTER.CONST>
1

>  <SCORE.INTER.POLAR>
0

>  <SCORE.INTER.REPUL>
0.196512

>  <SCORE.INTER.ROT>
7

>  <SCORE.INTER.VDW>
-30.2771

>  <SCORE.INTER.norm>
-0.511957

>  <SCORE.INTRA>
-34.4079

>  <SCORE.INTRA.DIHEDRAL>
-9.08965

>  <SCORE.INTRA.DIHEDRAL.0>
15.7959

>  <SCORE.INTRA.POLAR>
0

>  <SCORE.INTRA.POLAR.0>
0

>  <SCORE.INTRA.REPUL>
0

>  <SCORE.INTRA.REPUL.0>
0

>  <SCORE.INTRA.VDW>
-29.8631

>  <SCORE.INTRA.VDW.0>
25.9494

>  <SCORE.INTRA.norm>
-1.04266

>  <SCORE.RESTR>
0

>  <SCORE.RESTR.CAVITY>
0

>  <SCORE.RESTR.norm>
0

>  <SCORE.SYSTEM>
-4.14269

>  <SCORE.SYSTEM.CONST>
0

>  <SCORE.SYSTEM.DIHEDRAL>
10.8618

>  <SCORE.SYSTEM.POLAR>
-3.98792

>  <SCORE.SYSTEM.REPUL>
0.0399999

>  <SCORE.SYSTEM.VDW>
3.78535

>  <SCORE.SYSTEM.norm>
-0.125536

>  <SCORE.heavy>
33

>  <SCORE.norm>
-1.68016

$$$$
F3008-0038
  rDOCK(R)          3D
libRbt.so/2013.1/901 2013/11/27
 33 37  0  0  0  0  0  0  0  0999 V2000
  -19.1644   22.5056  -14.8159 O   0  0  0  0  0  0
  -19.8522   21.7879  -14.0543 C   0  0  0  0  0  0
  -21.1423   22.4438  -12.9360 C   0  0  0  0  0  0
  -22.1052   21.9679  -11.8222 O   0  0  0  0  0  0
  -23.0550   21.0216  -11.3818 C   0  0  0  0  0  0
  -24.4478   21.0679  -10.9521 C   0  0  0  0  0  0
  -25.1419   19.9459  -10.4246 C   0  0  0  0  0  0
  -24.5440   18.7134  -10.3512 C   0  0  0  0  0  0
  -23.2511   18.5890  -10.8377 C   0  0  0  0  0  0
  -22.5252   19.7112  -11.3305 C   0  0  0  0  0  0
  -25.3802   22.2707  -10.9908 C   0  0  0  0  0  0
  -24.8737   23.4395  -10.1230 C   0  0  0  0  0  0
  -23.7520   23.8878  -10.9704 C   0  0  0  0  0  0
  -23.9159   23.4615  -12.1923 N   0  0  0  0  0  0
  -25.2153   22.7189  -12.2979 N   0  0  0  0  0  0
  -25.7957   22.1179  -13.5285 C   0  0  0  0  0  0
  -26.6178   22.5661  -14.3053 O   0  0  0  0  0  0
  -25.4520   20.7489  -13.9818 C   0  0  0  0  0  0
  -24.2385   20.1638  -13.7658 C   0  0  0  0  0  0
  -23.9173   18.9618  -14.3977 C   0  0  0  0  0  0
  -24.7872   18.3885  -15.3311 C   0  0  0  0  0  0
  -25.9889   19.0069  -15.6409 C   0  0  0  0  0  0
  -26.3319   20.1799  -14.9694 C   0  0  0  0  0  0
  -22.6611   24.7727  -10.5999 C   0  0  0  0  0  0
  -22.1946   25.1127   -9.3312 C   0  0  0  0  0  0
  -20.9876   25.8788   -9.3635 C   0  0  0  0  0  0
  -20.6019   26.1663  -10.6523 C   0  0  0  0  0  0
  -21.6857   25.5093  -11.8040 S   0  0  0  0  0  0
  -19.4055   20.5281  -14.3171 N   0  0  0  0  0  0
  -18.3141   20.5111  -15.3285 C   0  0  0  0  0  0
  -18.0418   19.0858  -15.6550 C   0  0  0  0  0  0
  -18.4799   18.4115  -14.3656 C   0  0  0  0  0  0
  -19.7298   19.1954  -13.9162 C   0  0  0  0  0  0
  1  2  2  0  0  0
  2  3  1  0  0  0
  2 29  1  0  0  0
  3  4  1  0  0  0
  4  5  1  0  0  0
  5  6  2  0  0  0
  5 10  1  0  0  0
  6  7  1  0  0  0
  6 11  1  0  0  0
  7  8  2  0  0  0
  8  9  1  0  0  0
  9 10  2  0  0  0
 11 12  1  0  0  0
 11 15  1  0  0  0
 12 13  1  0  0  0
 13 14  2  0  0  0
 13 24  1  0  0  0
 14 15  1  0  0  0
 15 16  1  0  0  0
 16 17  2  0  0  0
 16 18  1  0  0  0
 18 19  2  0  0  0
 18 23  1  0  0  0
 19 20  1  0  0  0
 20 21  2  0  0  0
 21 22  1  0  0  0
 22 23  2  0  0  0
 24 25  2  0  0  0
 24 28  1  0  0  0
 25 26  1  0  0  0
 26 27  2  0  0  0
 27 28  1  0  0  0
 29 30  1  0  0  0
 29 33  1  0  0  0
 30 31  1  0  0  0
 31 32  1  0  0  0
 32 33  1  0  0  0
M  END
>  <CHROM.0>
-174.68017493,-70.77414835,82.05145684,65.77934342,-30.81321102,59.96856143
-38.19539055,-50.82193797

>  <CHROM.1>
-174.57829929,-47.42236693,-121.02280307,-61.20599696,19.42486732,114.31158965
-31.20656430,-22.73727325,21.70151850,-12.63678669,-1.28251819,0.19676197
0.59036726

>  <Name>
F3008-0038

>  <RI>
3.96271e+07

>  <Rbt.Current_Directory>
/home/adria/Escritorio/rDock_CMTR_LC/2pxcA_model/inputs_sah

>  <Rbt.Executable>
rbdock ($Id: //depot/dev/client3/rdock/2013.1/src/exe/rbdock.cxx#4 $)

>  <Rbt.Library>
libRbt.so (2013.1, Build901 2013/11/27)

>  <Rbt.Parameter_File>
/home/adria/Escritorio/rDock_2013.1_src/data/scripts/dock.prm

>  <Rbt.Receptor>
sah_rdock.prm

>  <SCORE>
-47.4303

>  <SCORE.INTER>
-11.6439

>  <SCORE.INTER.CONST>
1

>  <SCORE.INTER.POLAR>
-0.61292

>  <SCORE.INTER.REPUL>
0.0623049

>  <SCORE.INTER.ROT>
7

>  <SCORE.INTER.VDW>
-22.2715

>  <SCORE.INTER.norm>
-0.352845

>  <SCORE.INTRA>
-30.8391

>  <SCORE.INTRA.DIHEDRAL>
-6.17116

>  <SCORE.INTRA.DIHEDRAL.0>
15.7959

>  <SCORE.INTRA.POLAR>
0

>  <SCORE.INTRA.POLAR.0>
0

>  <SCORE.INTRA.REPUL>
0

>  <SCORE.INTRA.REPUL.0>
0

>  <SCORE.INTRA.VDW>
-27.7535

>  <SCORE.INTRA.VDW.0>
25.9494

>  <SCORE.INTRA.norm>
-0.934518

>  <SCORE.RESTR>
0

>  <SCORE.RESTR.CAVITY>
0

>  <SCORE.RESTR.norm>
0

>  <SCORE.SYSTEM>
-4.94732

>  <SCORE.SYSTEM.CONST>
0

>  <SCORE.SYSTEM.DIHEDRAL>
9.31257

>  <SCORE.SYSTEM.POLAR>
-3.63266

>  <SCORE.SYSTEM.REPUL>
0.0439803

>  <SCORE.SYSTEM.VDW>
2.52755

>  <SCORE.SYSTEM.norm>
-0.149919

>  <SCORE.heavy>
33

>  <SCORE.norm>
-1.43728

$$$$
