F6503-4868
  rDOCK(R)          3D
libRbt.so/2013.1/901 2013/11/27
 27 30  0  0  0  0  0  0  0  0999 V2000
  -27.0116   22.9882   -8.4096 C   0  0  0  0  0  0
  -26.7638   24.0408   -9.3117 O   0  0  0  0  0  0
  -26.4521   23.5632  -10.5253 C   0  0  0  0  0  0
  -25.9778   24.4899  -11.3691 N   0  0  0  0  0  0
  -25.1192   23.7742  -12.3726 N   0  0  0  0  0  0
  -23.9353   24.4482  -13.8961 C   0  0  0  0  0  0
  -25.2530   22.4355  -11.7225 C   0  0  0  0  0  0
  -26.3295   22.2591  -10.9468 C   0  0  0  0  0  0
  -26.5197   20.8735  -10.6425 C   0  0  0  0  0  0
  -26.2743   20.4502   -9.5151 O   0  0  0  0  0  0
  -26.7308   20.0141  -11.7841 N   0  0  0  0  0  0
  -26.5994   18.5883  -11.4624 C   0  0  0  0  0  0
  -25.1906   18.1515  -11.5983 C   0  0  0  0  0  0
  -23.9847   18.7294  -11.2607 C   0  0  0  0  0  0
  -22.9818   17.8291  -11.6886 C   0  0  0  0  0  0
  -23.6392   16.7515  -12.2336 C   0  0  0  0  0  0
  -24.9814   16.9375  -12.1804 O   0  0  0  0  0  0
  -27.0175   20.3180  -13.2990 C   0  0  0  0  0  0
  -25.9969   20.0833  -14.4777 C   0  0  0  0  0  0
  -25.6044   18.7925  -14.6973 N   0  0  0  0  0  0
  -25.2519   18.6300  -16.0016 N   0  0  0  0  0  0
  -24.9868   17.3435  -16.5967 C   0  0  0  0  0  0
  -25.1669   19.7726  -16.7053 C   0  0  0  0  0  0
  -25.5072   21.0468  -15.5717 C   0  0  0  0  0  0
  -26.3085   22.6589  -16.5276 C   0  0  0  0  0  0
  -26.5192   22.0502  -18.5147 C   0  0  0  0  0  0
  -25.6568   20.1442  -18.5902 C   0  0  0  0  0  0
  1  2  1  0  0  0
  2  3  1  0  0  0
  3  4  2  0  0  0
  3  8  1  0  0  0
  4  5  1  0  0  0
  5  6  1  0  0  0
  5  7  1  0  0  0
  7  8  2  0  0  0
  8  9  1  0  0  0
  9 10  2  0  0  0
  9 11  1  0  0  0
 11 12  1  0  0  0
 11 18  1  0  0  0
 12 13  1  0  0  0
 13 14  2  0  0  0
 13 17  1  0  0  0
 14 15  1  0  0  0
 15 16  2  0  0  0
 16 17  1  0  0  0
 18 19  1  0  0  0
 19 20  2  0  0  0
 19 24  1  0  0  0
 20 21  1  0  0  0
 21 22  1  0  0  0
 21 23  1  0  0  0
 23 24  2  0  0  0
 23 27  1  0  0  0
 24 25  1  0  0  0
 25 26  1  0  0  0
 26 27  1  0  0  0
M  END
>  <CHROM.0>
-59.71492934,65.98301018,-167.54200432,66.92045131,32.71737848,-52.84617122
-156.50197230,-159.48872686

>  <CHROM.1>
-168.92448167,-40.05456340,-88.08372177,109.12292491,40.76220902,62.67892870
-25.63251543,20.65230757,-13.00800357,2.19445061,-1.36817401,1.70357543

>  <Name>
F6503-4868

>  <RI>
3.64609e+07

>  <Rbt.Current_Directory>
/home/adria/Escritorio/rDock_CMTR_LC/2pxcA_model/inputs_sah

>  <Rbt.Executable>
rbdock ($Id: //depot/dev/client3/rdock/2013.1/src/exe/rbdock.cxx#4 $)

>  <Rbt.Library>
libRbt.so (2013.1, Build901 2013/11/27)

>  <Rbt.Parameter_File>
/home/adria/Escritorio/rDock_2013.1_src/data/scripts/dock.prm

>  <Rbt.Receptor>
sah_rdock.prm

>  <SCORE>
-192.502

>  <SCORE.INTER>
0.0119988

>  <SCORE.INTER.CONST>
1

>  <SCORE.INTER.POLAR>
0

>  <SCORE.INTER.REPUL>
0

>  <SCORE.INTER.ROT>
6

>  <SCORE.INTER.VDW>
-11.388

>  <SCORE.INTER.norm>
0.000444398

>  <SCORE.INTRA>
-197.288

>  <SCORE.INTRA.DIHEDRAL>
-19.4408

>  <SCORE.INTRA.DIHEDRAL.0>
30.9545

>  <SCORE.INTRA.POLAR>
0

>  <SCORE.INTRA.POLAR.0>
0

>  <SCORE.INTRA.REPUL>
0

>  <SCORE.INTRA.REPUL.0>
0

>  <SCORE.INTRA.VDW>
-187.568

>  <SCORE.INTRA.VDW.0>
187.023

>  <SCORE.INTRA.norm>
-7.30696

>  <SCORE.RESTR>
0.0102612

>  <SCORE.RESTR.CAVITY>
0.0102612

>  <SCORE.RESTR.norm>
0.000380043

>  <SCORE.SYSTEM>
4.76334

>  <SCORE.SYSTEM.CONST>
0

>  <SCORE.SYSTEM.DIHEDRAL>
5.78206

>  <SCORE.SYSTEM.POLAR>
-3.43724

>  <SCORE.SYSTEM.VDW>
13.5589

>  <SCORE.SYSTEM.norm>
0.17642

>  <SCORE.heavy>
27

>  <SCORE.norm>
-7.12972

$$$$
F6503-4868
  rDOCK(R)          3D
libRbt.so/2013.1/901 2013/11/27
 27 30  0  0  0  0  0  0  0  0999 V2000
  -14.8012   19.9807  -16.8456 C   0  0  0  0  0  0
  -15.4767   19.7993  -15.6234 O   0  0  0  0  0  0
  -16.6407   19.1613  -15.8137 C   0  0  0  0  0  0
  -16.5942   18.2167  -16.7631 N   0  0  0  0  0  0
  -17.6683   17.2167  -16.4428 N   0  0  0  0  0  0
  -18.1788   15.4298  -17.2933 C   0  0  0  0  0  0
  -18.0714   17.8694  -15.1606 C   0  0  0  0  0  0
  -17.7792   19.1702  -15.0412 C   0  0  0  0  0  0
  -18.4795   19.7529  -13.9371 C   0  0  0  0  0  0
  -17.8559   20.3041  -13.0328 O   0  0  0  0  0  0
  -19.8768   19.4009  -13.8374 N   0  0  0  0  0  0
  -20.4659   19.7486  -12.5390 C   0  0  0  0  0  0
  -20.7279   21.2043  -12.4590 C   0  0  0  0  0  0
  -20.4679   22.2597  -13.3078 C   0  0  0  0  0  0
  -20.9239   23.4220  -12.6439 C   0  0  0  0  0  0
  -21.4552   22.9987  -11.4485 C   0  0  0  0  0  0
  -21.3430   21.6526  -11.3290 O   0  0  0  0  0  0
  -20.8586   18.6749  -14.8265 C   0  0  0  0  0  0
  -22.4305   18.6728  -14.7022 C   0  0  0  0  0  0
  -22.9448   18.9265  -13.4614 N   0  0  0  0  0  0
  -24.1859   19.4729  -13.5762 N   0  0  0  0  0  0
  -24.9091   20.0382  -12.4641 C   0  0  0  0  0  0
  -24.6965   19.4465  -14.8198 C   0  0  0  0  0  0
  -23.5114   18.6289  -15.7951 C   0  0  0  0  0  0
  -23.6211   19.2583  -17.7307 C   0  0  0  0  0  0
  -25.0664   20.7664  -17.7200 C   0  0  0  0  0  0
  -25.8129   20.7854  -15.7643 C   0  0  0  0  0  0
  1  2  1  0  0  0
  2  3  1  0  0  0
  3  4  2  0  0  0
  3  8  1  0  0  0
  4  5  1  0  0  0
  5  6  1  0  0  0
  5  7  1  0  0  0
  7  8  2  0  0  0
  8  9  1  0  0  0
  9 10  2  0  0  0
  9 11  1  0  0  0
 11 12  1  0  0  0
 11 18  1  0  0  0
 12 13  1  0  0  0
 13 14  2  0  0  0
 13 17  1  0  0  0
 14 15  1  0  0  0
 15 16  2  0  0  0
 16 17  1  0  0  0
 18 19  1  0  0  0
 19 20  2  0  0  0
 19 24  1  0  0  0
 20 21  1  0  0  0
 21 22  1  0  0  0
 21 23  1  0  0  0
 23 24  2  0  0  0
 23 27  1  0  0  0
 24 25  1  0  0  0
 25 26  1  0  0  0
 26 27  1  0  0  0
M  END
>  <CHROM.0>
-59.00145944,-70.87596338,75.47446977,-59.51756376,-30.16635814,-57.82754738
-156.01385367,-160.56195386

>  <CHROM.1>
36.76805991,-24.71225974,76.41177812,-164.61359827,-4.01147814,-22.27102338
-20.50356228,19.70714038,-14.60791219,-0.31479903,-0.04199460,0.89595315

>  <Name>
F6503-4868

>  <RI>
3.64609e+07

>  <Rbt.Current_Directory>
/home/adria/Escritorio/rDock_CMTR_LC/2pxcA_model/inputs_sah

>  <Rbt.Executable>
rbdock ($Id: //depot/dev/client3/rdock/2013.1/src/exe/rbdock.cxx#4 $)

>  <Rbt.Library>
libRbt.so (2013.1, Build901 2013/11/27)

>  <Rbt.Parameter_File>
/home/adria/Escritorio/rDock_2013.1_src/data/scripts/dock.prm

>  <Rbt.Receptor>
sah_rdock.prm

>  <SCORE>
-208.278

>  <SCORE.INTER>
-8.62311

>  <SCORE.INTER.CONST>
1

>  <SCORE.INTER.POLAR>
0

>  <SCORE.INTER.REPUL>
0

>  <SCORE.INTER.ROT>
6

>  <SCORE.INTER.VDW>
-20.0231

>  <SCORE.INTER.norm>
-0.319374

>  <SCORE.INTRA>
-191.947

>  <SCORE.INTRA.DIHEDRAL>
-16.6687

>  <SCORE.INTRA.DIHEDRAL.0>
30.9545

>  <SCORE.INTRA.POLAR>
0

>  <SCORE.INTRA.POLAR.0>
0

>  <SCORE.INTRA.REPUL>
0

>  <SCORE.INTRA.REPUL.0>
0

>  <SCORE.INTRA.VDW>
-183.613

>  <SCORE.INTRA.VDW.0>
187.023

>  <SCORE.INTRA.norm>
-7.10915

>  <SCORE.RESTR>
0

>  <SCORE.RESTR.CAVITY>
0

>  <SCORE.RESTR.norm>
0

>  <SCORE.SYSTEM>
-7.70812

>  <SCORE.SYSTEM.CONST>
0

>  <SCORE.SYSTEM.DIHEDRAL>
6.48803

>  <SCORE.SYSTEM.POLAR>
-4.1312

>  <SCORE.SYSTEM.REPUL>
0.0345239

>  <SCORE.SYSTEM.VDW>
2.92132

>  <SCORE.SYSTEM.norm>
-0.285486

>  <SCORE.heavy>
27

>  <SCORE.norm>
-7.71401

$$$$
F6503-4868
  rDOCK(R)          3D
libRbt.so/2013.1/901 2013/11/27
 27 30  0  0  0  0  0  0  0  0999 V2000
  -21.7664   18.0584  -11.7944 C   0  0  0  0  0  0
  -21.5402   19.4144  -11.4892 O   0  0  0  0  0  0
  -20.5545   19.9145  -12.2483 C   0  0  0  0  0  0
  -19.6458   19.0056  -12.6277 N   0  0  0  0  0  0
  -19.0271   19.5061  -13.9017 N   0  0  0  0  0  0
  -17.6751   18.6764  -15.1903 C   0  0  0  0  0  0
  -19.9132   20.7042  -14.0112 C   0  0  0  0  0  0
  -20.4657   21.1378  -12.8717 C   0  0  0  0  0  0
  -21.0209   22.4466  -13.0377 C   0  0  0  0  0  0
  -20.4218   23.2915  -13.6994 O   0  0  0  0  0  0
  -22.1329   22.7600  -12.1707 N   0  0  0  0  0  0
  -22.4564   24.1912  -12.1452 C   0  0  0  0  0  0
  -21.8630   24.8381  -10.9522 C   0  0  0  0  0  0
  -20.9724   25.8778  -10.7850 C   0  0  0  0  0  0
  -20.7614   25.9969   -9.3919 C   0  0  0  0  0  0
  -21.5549   25.0429   -8.7996 C   0  0  0  0  0  0
  -22.2298   24.3361   -9.7398 O   0  0  0  0  0  0
  -23.0156   21.8739  -11.2192 C   0  0  0  0  0  0
  -24.4698   21.3625  -11.5504 C   0  0  0  0  0  0
  -25.0744   21.9102  -12.6472 N   0  0  0  0  0  0
  -25.9800   21.0353  -13.1635 N   0  0  0  0  0  0
  -26.6352   21.2297  -14.4332 C   0  0  0  0  0  0
  -26.2234   19.9611  -12.3921 C   0  0  0  0  0  0
  -25.2668   20.1884  -10.9577 C   0  0  0  0  0  0
  -24.7738   18.3898  -10.1349 C   0  0  0  0  0  0
  -25.5322   16.9690  -11.4651 C   0  0  0  0  0  0
  -26.5677   18.0778  -12.9075 C   0  0  0  0  0  0
  1  2  1  0  0  0
  2  3  1  0  0  0
  3  4  2  0  0  0
  3  8  1  0  0  0
  4  5  1  0  0  0
  5  6  1  0  0  0
  5  7  1  0  0  0
  7  8  2  0  0  0
  8  9  1  0  0  0
  9 10  2  0  0  0
  9 11  1  0  0  0
 11 12  1  0  0  0
 11 18  1  0  0  0
 12 13  1  0  0  0
 13 14  2  0  0  0
 13 17  1  0  0  0
 14 15  1  0  0  0
 15 16  2  0  0  0
 16 17  1  0  0  0
 18 19  1  0  0  0
 19 20  2  0  0  0
 19 24  1  0  0  0
 20 21  1  0  0  0
 21 22  1  0  0  0
 21 23  1  0  0  0
 23 24  2  0  0  0
 23 27  1  0  0  0
 24 25  1  0  0  0
 25 26  1  0  0  0
 26 27  1  0  0  0
M  END
>  <CHROM.0>
37.92021818,-73.50328751,77.24295469,67.65155171,-30.45636243,-59.69232714
-36.45557026,-155.42641607

>  <CHROM.1>
-28.72026520,172.61526919,-98.81979772,-102.12424642,121.28448405,-10.94767750
-22.48567261,21.30434848,-12.08800730,-2.24178189,0.20352234,0.38005998

>  <Name>
F6503-4868

>  <RI>
3.64609e+07

>  <Rbt.Current_Directory>
/home/adria/Escritorio/rDock_CMTR_LC/2pxcA_model/inputs_sah

>  <Rbt.Executable>
rbdock ($Id: //depot/dev/client3/rdock/2013.1/src/exe/rbdock.cxx#4 $)

>  <Rbt.Library>
libRbt.so (2013.1, Build901 2013/11/27)

>  <Rbt.Parameter_File>
/home/adria/Escritorio/rDock_2013.1_src/data/scripts/dock.prm

>  <Rbt.Receptor>
sah_rdock.prm

>  <SCORE>
-199.903

>  <SCORE.INTER>
-4.90485

>  <SCORE.INTER.CONST>
1

>  <SCORE.INTER.POLAR>
0

>  <SCORE.INTER.REPUL>
0

>  <SCORE.INTER.ROT>
6

>  <SCORE.INTER.VDW>
-16.3049

>  <SCORE.INTER.norm>
-0.181661

>  <SCORE.INTRA>
-191.794

>  <SCORE.INTRA.DIHEDRAL>
-16.6924

>  <SCORE.INTRA.DIHEDRAL.0>
30.9545

>  <SCORE.INTRA.POLAR>
0

>  <SCORE.INTRA.POLAR.0>
0

>  <SCORE.INTRA.REPUL>
0

>  <SCORE.INTRA.REPUL.0>
0

>  <SCORE.INTRA.VDW>
-183.448

>  <SCORE.INTRA.VDW.0>
187.023

>  <SCORE.INTRA.norm>
-7.10349

>  <SCORE.RESTR>
0

>  <SCORE.RESTR.CAVITY>
0

>  <SCORE.RESTR.norm>
0

>  <SCORE.SYSTEM>
-3.20415

>  <SCORE.SYSTEM.CONST>
0

>  <SCORE.SYSTEM.DIHEDRAL>
9.5304

>  <SCORE.SYSTEM.POLAR>
-4.03695

>  <SCORE.SYSTEM.REPUL>
0.16903

>  <SCORE.SYSTEM.VDW>
4.91113

>  <SCORE.SYSTEM.norm>
-0.118672

>  <SCORE.heavy>
27

>  <SCORE.norm>
-7.40383

$$$$
F6503-4868
  rDOCK(R)          3D
libRbt.so/2013.1/901 2013/11/27
 27 30  0  0  0  0  0  0  0  0999 V2000
  -23.7318   17.6241  -14.8012 C   0  0  0  0  0  0
  -23.5028   18.2263  -16.0534 O   0  0  0  0  0  0
  -24.1867   19.3747  -16.1606 C   0  0  0  0  0  0
  -24.0749   19.9644  -17.3587 N   0  0  0  0  0  0
  -25.3045   20.8053  -17.5526 N   0  0  0  0  0  0
  -25.9794   21.9065  -19.1365 C   0  0  0  0  0  0
  -25.9594   20.3672  -16.2831 C   0  0  0  0  0  0
  -25.1460   19.9023  -15.3272 C   0  0  0  0  0  0
  -25.8281   19.8164  -14.0717 C   0  0  0  0  0  0
  -27.0558   19.7701  -14.0386 O   0  0  0  0  0  0
  -25.0120   20.0698  -12.9072 N   0  0  0  0  0  0
  -25.8007   20.2882  -11.6890 C   0  0  0  0  0  0
  -25.9347   21.7363  -11.4080 C   0  0  0  0  0  0
  -25.9426   22.4769  -10.2446 C   0  0  0  0  0  0
  -26.1511   23.8205  -10.6332 C   0  0  0  0  0  0
  -26.2299   23.8161  -12.0059 C   0  0  0  0  0  0
  -26.0967   22.5546  -12.4853 O   0  0  0  0  0  0
  -23.4587   20.2078  -12.7130 C   0  0  0  0  0  0
  -22.7392   21.4219  -12.0097 C   0  0  0  0  0  0
  -22.5347   22.5362  -12.7744 N   0  0  0  0  0  0
  -22.4840   23.6408  -11.9811 N   0  0  0  0  0  0
  -22.4822   24.9875  -12.4964 C   0  0  0  0  0  0
  -22.4344   23.3814  -10.6626 C   0  0  0  0  0  0
  -22.3968   21.6480  -10.5277 C   0  0  0  0  0  0
  -23.2147   21.0508   -8.7587 C   0  0  0  0  0  0
  -23.9009   22.8109   -7.8673 C   0  0  0  0  0  0
  -23.2713   24.3448   -9.1452 C   0  0  0  0  0  0
  1  2  1  0  0  0
  2  3  1  0  0  0
  3  4  2  0  0  0
  3  8  1  0  0  0
  4  5  1  0  0  0
  5  6  1  0  0  0
  5  7  1  0  0  0
  7  8  2  0  0  0
  8  9  1  0  0  0
  9 10  2  0  0  0
  9 11  1  0  0  0
 11 12  1  0  0  0
 11 18  1  0  0  0
 12 13  1  0  0  0
 13 14  2  0  0  0
 13 17  1  0  0  0
 14 15  1  0  0  0
 15 16  2  0  0  0
 16 17  1  0  0  0
 18 19  1  0  0  0
 19 20  2  0  0  0
 19 24  1  0  0  0
 20 21  1  0  0  0
 21 22  1  0  0  0
 21 23  1  0  0  0
 23 24  2  0  0  0
 23 27  1  0  0  0
 24 25  1  0  0  0
 25 26  1  0  0  0
 26 27  1  0  0  0
M  END
>  <CHROM.0>
-64.53216617,65.86521742,-10.36512292,67.67732625,-29.37535589,-176.25767431
-36.57579165,-171.41865329

>  <CHROM.1>
-176.40667885,-126.15281066,-99.05646441,127.20033570,-142.70294598,-81.70052888
-24.48725415,21.41026922,-13.05477777,-2.04585428,-1.20670168,0.66710128

>  <Name>
F6503-4868

>  <RI>
3.64609e+07

>  <Rbt.Current_Directory>
/home/adria/Escritorio/rDock_CMTR_LC/2pxcA_model/inputs_sah

>  <Rbt.Executable>
rbdock ($Id: //depot/dev/client3/rdock/2013.1/src/exe/rbdock.cxx#4 $)

>  <Rbt.Library>
libRbt.so (2013.1, Build901 2013/11/27)

>  <Rbt.Parameter_File>
/home/adria/Escritorio/rDock_2013.1_src/data/scripts/dock.prm

>  <Rbt.Receptor>
sah_rdock.prm

>  <SCORE>
-206.855

>  <SCORE.INTER>
-1.4399

>  <SCORE.INTER.CONST>
1

>  <SCORE.INTER.POLAR>
0

>  <SCORE.INTER.REPUL>
0.0402286

>  <SCORE.INTER.ROT>
6

>  <SCORE.INTER.VDW>
-13.041

>  <SCORE.INTER.norm>
-0.0533295

>  <SCORE.INTRA>
-198.609

>  <SCORE.INTRA.DIHEDRAL>
-20.6521

>  <SCORE.INTRA.DIHEDRAL.0>
30.9545

>  <SCORE.INTRA.POLAR>
0

>  <SCORE.INTRA.POLAR.0>
0

>  <SCORE.INTRA.REPUL>
0

>  <SCORE.INTRA.REPUL.0>
0

>  <SCORE.INTRA.VDW>
-188.283

>  <SCORE.INTRA.VDW.0>
187.023

>  <SCORE.INTRA.norm>
-7.35589

>  <SCORE.RESTR>
0.030861

>  <SCORE.RESTR.CAVITY>
0.030861

>  <SCORE.RESTR.norm>
0.001143

>  <SCORE.SYSTEM>
-6.83735

>  <SCORE.SYSTEM.CONST>
0

>  <SCORE.SYSTEM.DIHEDRAL>
8.94893

>  <SCORE.SYSTEM.POLAR>
-4.25198

>  <SCORE.SYSTEM.VDW>
3.14492

>  <SCORE.SYSTEM.norm>
-0.253235

>  <SCORE.heavy>
27

>  <SCORE.norm>
-7.66131

$$$$
F6503-4868
  rDOCK(R)          3D
libRbt.so/2013.1/901 2013/11/27
 27 30  0  0  0  0  0  0  0  0999 V2000
  -18.7746   15.8868  -15.0048 C   0  0  0  0  0  0
  -19.6197   16.2499  -13.9386 O   0  0  0  0  0  0
  -20.3527   17.3262  -14.2584 C   0  0  0  0  0  0
  -20.5736   17.4627  -15.5730 N   0  0  0  0  0  0
  -21.8438   18.2495  -15.7272 N   0  0  0  0  0  0
  -22.9433   18.7748  -17.3680 C   0  0  0  0  0  0
  -22.1355   18.3082  -14.2630 C   0  0  0  0  0  0
  -21.0874   18.1571  -13.4442 C   0  0  0  0  0  0
  -21.4227   18.5428  -12.1071 C   0  0  0  0  0  0
  -22.1001   17.7984  -11.4019 O   0  0  0  0  0  0
  -21.1607   19.9249  -11.7793 N   0  0  0  0  0  0
  -21.8052   20.3519  -10.5318 C   0  0  0  0  0  0
  -23.1930   20.8008  -10.7897 C   0  0  0  0  0  0
  -23.9719   20.8594  -11.9264 C   0  0  0  0  0  0
  -25.2046   21.4286  -11.5314 C   0  0  0  0  0  0
  -25.1080   21.6548  -10.1786 C   0  0  0  0  0  0
  -23.8904   21.2738   -9.7191 O   0  0  0  0  0  0
  -20.3697   21.0584  -12.5269 C   0  0  0  0  0  0
  -20.8922   22.5290  -12.7517 C   0  0  0  0  0  0
  -22.1084   22.6579  -13.3620 N   0  0  0  0  0  0
  -22.6988   23.8228  -12.9791 N   0  0  0  0  0  0
  -24.0679   24.1558  -13.2856 C   0  0  0  0  0  0
  -21.9010   24.6530  -12.2846 C   0  0  0  0  0  0
  -20.3519   23.8657  -12.2167 C   0  0  0  0  0  0
  -19.3328   24.4359  -10.5460 C   0  0  0  0  0  0
  -20.6614   25.6667   -9.5051 C   0  0  0  0  0  0
  -22.3276   25.8462  -10.7597 C   0  0  0  0  0  0
  1  2  1  0  0  0
  2  3  1  0  0  0
  3  4  2  0  0  0
  3  8  1  0  0  0
  4  5  1  0  0  0
  5  6  1  0  0  0
  5  7  1  0  0  0
  7  8  2  0  0  0
  8  9  1  0  0  0
  9 10  2  0  0  0
  9 11  1  0  0  0
 11 12  1  0  0  0
 11 18  1  0  0  0
 12 13  1  0  0  0
 13 14  2  0  0  0
 13 17  1  0  0  0
 14 15  1  0  0  0
 15 16  2  0  0  0
 16 17  1  0  0  0
 18 19  1  0  0  0
 19 20  2  0  0  0
 19 24  1  0  0  0
 20 21  1  0  0  0
 21 22  1  0  0  0
 21 23  1  0  0  0
 23 24  2  0  0  0
 23 27  1  0  0  0
 24 25  1  0  0  0
 25 26  1  0  0  0
 26 27  1  0  0  0
M  END
>  <CHROM.0>
-63.45353430,-73.23640149,108.69987776,62.61820114,168.50089421,-57.60125176
-158.42315434,-163.29408180

>  <CHROM.1>
26.99369722,-70.84390884,-86.19351172,133.08656686,1.84835568,-54.68359524
-21.84491688,20.75901118,-12.59846325,-1.35492095,0.40003608,0.39580750

>  <Name>
F6503-4868

>  <RI>
3.64609e+07

>  <Rbt.Current_Directory>
/home/adria/Escritorio/rDock_CMTR_LC/2pxcA_model/inputs_sah

>  <Rbt.Executable>
rbdock ($Id: //depot/dev/client3/rdock/2013.1/src/exe/rbdock.cxx#4 $)

>  <Rbt.Library>
libRbt.so (2013.1, Build901 2013/11/27)

>  <Rbt.Parameter_File>
/home/adria/Escritorio/rDock_2013.1_src/data/scripts/dock.prm

>  <Rbt.Receptor>
sah_rdock.prm

>  <SCORE>
-208.017

>  <SCORE.INTER>
-12.8419

>  <SCORE.INTER.CONST>
1

>  <SCORE.INTER.POLAR>
-0.851269

>  <SCORE.INTER.REPUL>
0.100612

>  <SCORE.INTER.ROT>
6

>  <SCORE.INTER.VDW>
-21.8506

>  <SCORE.INTER.norm>
-0.475626

>  <SCORE.INTRA>
-192.522

>  <SCORE.INTRA.DIHEDRAL>
-14.7802

>  <SCORE.INTRA.DIHEDRAL.0>
30.9545

>  <SCORE.INTRA.POLAR>
0

>  <SCORE.INTRA.POLAR.0>
0

>  <SCORE.INTRA.REPUL>
0

>  <SCORE.INTRA.REPUL.0>
0

>  <SCORE.INTRA.VDW>
-185.132

>  <SCORE.INTRA.VDW.0>
187.023

>  <SCORE.INTRA.norm>
-7.13043

>  <SCORE.RESTR>
0

>  <SCORE.RESTR.CAVITY>
0

>  <SCORE.RESTR.norm>
0

>  <SCORE.SYSTEM>
-2.65321

>  <SCORE.SYSTEM.CONST>
0

>  <SCORE.SYSTEM.DIHEDRAL>
6.29279

>  <SCORE.SYSTEM.POLAR>
-4.5102

>  <SCORE.SYSTEM.REPUL>
0.038955

>  <SCORE.SYSTEM.VDW>
9.34031

>  <SCORE.SYSTEM.norm>
-0.0982669

>  <SCORE.heavy>
27

>  <SCORE.norm>
-7.70433

$$$$
F6503-4868
  rDOCK(R)          3D
libRbt.so/2013.1/901 2013/11/27
 27 30  0  0  0  0  0  0  0  0999 V2000
  -19.8266   25.2121  -10.4841 C   0  0  0  0  0  0
  -20.6239   24.0580  -10.3604 O   0  0  0  0  0  0
  -20.9881   23.6002  -11.5670 C   0  0  0  0  0  0
  -20.0300   23.7005  -12.4986 N   0  0  0  0  0  0
  -20.3043   22.6423  -13.5287 N   0  0  0  0  0  0
  -19.2682   22.0336  -15.1818 C   0  0  0  0  0  0
  -21.4626   22.0482  -12.7953 C   0  0  0  0  0  0
  -22.0853   22.8503  -11.9231 C   0  0  0  0  0  0
  -23.3439   22.2960  -11.5263 C   0  0  0  0  0  0
  -24.3710   22.9636  -11.6264 O   0  0  0  0  0  0
  -23.2666   21.0674  -10.7708 N   0  0  0  0  0  0
  -24.5326   20.7131  -10.1184 C   0  0  0  0  0  0
  -24.9030   21.7340   -9.1112 C   0  0  0  0  0  0
  -24.1745   22.6491   -8.3804 C   0  0  0  0  0  0
  -25.1017   23.3174   -7.5478 C   0  0  0  0  0  0
  -26.3355   22.7872   -7.8427 C   0  0  0  0  0  0
  -26.2247   21.8266   -8.7935 O   0  0  0  0  0  0
  -22.0808   20.0795  -10.4751 C   0  0  0  0  0  0
  -21.7862   18.7541  -11.2767 C   0  0  0  0  0  0
  -22.8421   17.9065  -11.4638 N   0  0  0  0  0  0
  -22.6529   17.1716  -12.5935 N   0  0  0  0  0  0
  -23.6735   16.3355  -13.1753 C   0  0  0  0  0  0
  -21.4273   17.2828  -13.1352 C   0  0  0  0  0  0
  -20.5386   18.3324  -12.0708 C   0  0  0  0  0  0
  -19.0866   19.3286  -13.0975 C   0  0  0  0  0  0
  -19.3568   18.7606  -15.0894 C   0  0  0  0  0  0
  -20.8782   17.3236  -15.0399 C   0  0  0  0  0  0
  1  2  1  0  0  0
  2  3  1  0  0  0
  3  4  2  0  0  0
  3  8  1  0  0  0
  4  5  1  0  0  0
  5  6  1  0  0  0
  5  7  1  0  0  0
  7  8  2  0  0  0
  8  9  1  0  0  0
  9 10  2  0  0  0
  9 11  1  0  0  0
 11 12  1  0  0  0
 11 18  1  0  0  0
 12 13  1  0  0  0
 13 14  2  0  0  0
 13 17  1  0  0  0
 14 15  1  0  0  0
 15 16  2  0  0  0
 16 17  1  0  0  0
 18 19  1  0  0  0
 19 20  2  0  0  0
 19 24  1  0  0  0
 20 21  1  0  0  0
 21 22  1  0  0  0
 21 23  1  0  0  0
 23 24  2  0  0  0
 23 27  1  0  0  0
 24 25  1  0  0  0
 25 26  1  0  0  0
 26 27  1  0  0  0
M  END
>  <CHROM.0>
-177.61394320,67.37938398,75.14303430,-60.97792868,-30.55300243,60.96401898
-156.80482385,-45.82754760

>  <CHROM.1>
38.25811195,86.27443407,-63.70149428,-96.88528111,-24.26214731,-49.59928213
-22.26056740,21.01758732,-11.55390220,-2.26428526,-0.65223218,-2.77474129

>  <Name>
F6503-4868

>  <RI>
3.64609e+07

>  <Rbt.Current_Directory>
/home/adria/Escritorio/rDock_CMTR_LC/2pxcA_model/inputs_sah

>  <Rbt.Executable>
rbdock ($Id: //depot/dev/client3/rdock/2013.1/src/exe/rbdock.cxx#4 $)

>  <Rbt.Library>
libRbt.so (2013.1, Build901 2013/11/27)

>  <Rbt.Parameter_File>
/home/adria/Escritorio/rDock_2013.1_src/data/scripts/dock.prm

>  <Rbt.Receptor>
sah_rdock.prm

>  <SCORE>
-205.919

>  <SCORE.INTER>
-10.1453

>  <SCORE.INTER.CONST>
1

>  <SCORE.INTER.POLAR>
0

>  <SCORE.INTER.REPUL>
0.0690029

>  <SCORE.INTER.ROT>
6

>  <SCORE.INTER.VDW>
-21.8903

>  <SCORE.INTER.norm>
-0.375752

>  <SCORE.INTRA>
-191.059

>  <SCORE.INTRA.DIHEDRAL>
-10.7245

>  <SCORE.INTRA.DIHEDRAL.0>
30.9545

>  <SCORE.INTRA.POLAR>
0

>  <SCORE.INTRA.POLAR.0>
0

>  <SCORE.INTRA.REPUL>
0

>  <SCORE.INTRA.REPUL.0>
0

>  <SCORE.INTRA.VDW>
-185.697

>  <SCORE.INTRA.VDW.0>
187.023

>  <SCORE.INTRA.norm>
-7.07627

>  <SCORE.RESTR>
0.00552851

>  <SCORE.RESTR.CAVITY>
0.00552851

>  <SCORE.RESTR.norm>
0.000204759

>  <SCORE.SYSTEM>
-4.71981

>  <SCORE.SYSTEM.CONST>
0

>  <SCORE.SYSTEM.DIHEDRAL>
7.97235

>  <SCORE.SYSTEM.POLAR>
-3.42966

>  <SCORE.SYSTEM.REPUL>
0.0224077

>  <SCORE.SYSTEM.VDW>
2.84281

>  <SCORE.SYSTEM.norm>
-0.174808

>  <SCORE.heavy>
27

>  <SCORE.norm>
-7.62663

$$$$
F6503-4868
  rDOCK(R)          3D
libRbt.so/2013.1/901 2013/11/27
 27 30  0  0  0  0  0  0  0  0999 V2000
  -24.9100   18.8032   -8.8934 C   0  0  0  0  0  0
  -23.6035   19.3254   -8.8341 O   0  0  0  0  0  0
  -23.2651   19.8929  -10.0009 C   0  0  0  0  0  0
  -22.1501   20.6339   -9.9421 N   0  0  0  0  0  0
  -21.5653   20.6608  -11.3255 N   0  0  0  0  0  0
  -19.8281   21.4411  -12.0671 C   0  0  0  0  0  0
  -22.5754   19.7270  -11.9087 C   0  0  0  0  0  0
  -23.7467   19.6454  -11.2659 C   0  0  0  0  0  0
  -24.7279   18.9846  -12.0717 C   0  0  0  0  0  0
  -24.9433   17.7840  -11.9207 O   0  0  0  0  0  0
  -25.2038   19.7394  -13.2076 N   0  0  0  0  0  0
  -25.9492   18.9203  -14.1705 C   0  0  0  0  0  0
  -25.0218   18.2423  -15.1055 C   0  0  0  0  0  0
  -23.6470   18.1669  -15.1849 C   0  0  0  0  0  0
  -23.3595   17.3988  -16.3369 C   0  0  0  0  0  0
  -24.5737   17.0340  -16.8688 C   0  0  0  0  0  0
  -25.5891   17.5396  -16.1257 O   0  0  0  0  0  0
  -25.0284   21.2435  -13.6275 C   0  0  0  0  0  0
  -25.1824   22.4773  -12.6579 C   0  0  0  0  0  0
  -26.2005   22.4152  -11.7480 N   0  0  0  0  0  0
  -25.8911   23.1622  -10.6533 N   0  0  0  0  0  0
  -26.6628   23.1413   -9.4354 C   0  0  0  0  0  0
  -24.7979   23.9327  -10.7921 C   0  0  0  0  0  0
  -24.2473   23.6751  -12.4214 C   0  0  0  0  0  0
  -22.2349   23.9718  -12.5513 C   0  0  0  0  0  0
  -21.6233   24.3462  -10.5893 C   0  0  0  0  0  0
  -23.3929   24.3954   -9.4719 C   0  0  0  0  0  0
  1  2  1  0  0  0
  2  3  1  0  0  0
  3  4  2  0  0  0
  3  8  1  0  0  0
  4  5  1  0  0  0
  5  6  1  0  0  0
  5  7  1  0  0  0
  7  8  2  0  0  0
  8  9  1  0  0  0
  9 10  2  0  0  0
  9 11  1  0  0  0
 11 12  1  0  0  0
 11 18  1  0  0  0
 12 13  1  0  0  0
 13 14  2  0  0  0
 13 17  1  0  0  0
 14 15  1  0  0  0
 15 16  2  0  0  0
 16 17  1  0  0  0
 18 19  1  0  0  0
 19 20  2  0  0  0
 19 24  1  0  0  0
 20 21  1  0  0  0
 21 22  1  0  0  0
 21 23  1  0  0  0
 23 24  2  0  0  0
 23 27  1  0  0  0
 24 25  1  0  0  0
 25 26  1  0  0  0
 26 27  1  0  0  0
M  END
>  <CHROM.0>
-59.73951790,-167.88645060,-8.36126442,67.24925205,168.80301986,-62.96823549
79.12916932,-165.08425349

>  <CHROM.1>
167.69532190,-50.54671698,-84.21619245,-44.87952492,4.90386890,-40.08547821
-24.07138226,20.59795866,-12.15090510,-1.42149906,0.34938813,-2.43465606

>  <Name>
F6503-4868

>  <RI>
3.64609e+07

>  <Rbt.Current_Directory>
/home/adria/Escritorio/rDock_CMTR_LC/2pxcA_model/inputs_sah

>  <Rbt.Executable>
rbdock ($Id: //depot/dev/client3/rdock/2013.1/src/exe/rbdock.cxx#4 $)

>  <Rbt.Library>
libRbt.so (2013.1, Build901 2013/11/27)

>  <Rbt.Parameter_File>
/home/adria/Escritorio/rDock_2013.1_src/data/scripts/dock.prm

>  <Rbt.Receptor>
sah_rdock.prm

>  <SCORE>
-202.122

>  <SCORE.INTER>
-2.70272

>  <SCORE.INTER.CONST>
1

>  <SCORE.INTER.POLAR>
-0.858361

>  <SCORE.INTER.REPUL>
0.00660122

>  <SCORE.INTER.ROT>
6

>  <SCORE.INTER.VDW>
-11.2173

>  <SCORE.INTER.norm>
-0.100101

>  <SCORE.INTRA>
-198.393

>  <SCORE.INTRA.DIHEDRAL>
-17.1513

>  <SCORE.INTRA.DIHEDRAL.0>
30.9545

>  <SCORE.INTRA.POLAR>
0

>  <SCORE.INTRA.POLAR.0>
0

>  <SCORE.INTRA.REPUL>
0

>  <SCORE.INTRA.REPUL.0>
0

>  <SCORE.INTRA.VDW>
-189.817

>  <SCORE.INTRA.VDW.0>
187.023

>  <SCORE.INTRA.norm>
-7.34788

>  <SCORE.RESTR>
0

>  <SCORE.RESTR.CAVITY>
0

>  <SCORE.RESTR.norm>
0

>  <SCORE.SYSTEM>
-1.02658

>  <SCORE.SYSTEM.CONST>
0

>  <SCORE.SYSTEM.DIHEDRAL>
6.15775

>  <SCORE.SYSTEM.POLAR>
-4.06542

>  <SCORE.SYSTEM.VDW>
9.71696

>  <SCORE.SYSTEM.norm>
-0.0380214

>  <SCORE.heavy>
27

>  <SCORE.norm>
-7.486

$$$$
F6503-4868
  rDOCK(R)          3D
libRbt.so/2013.1/901 2013/11/27
 27 30  0  0  0  0  0  0  0  0999 V2000
  -19.6114   18.8323  -12.5376 C   0  0  0  0  0  0
  -20.1900   17.7784  -13.2708 O   0  0  0  0  0  0
  -20.7553   18.2370  -14.3969 C   0  0  0  0  0  0
  -21.3770   17.2931  -15.1168 N   0  0  0  0  0  0
  -22.4380   17.9831  -15.9258 N   0  0  0  0  0  0
  -23.8994   17.2725  -17.1653 C   0  0  0  0  0  0
  -22.1972   19.3311  -15.3278 C   0  0  0  0  0  0
  -20.9867   19.5340  -14.7937 C   0  0  0  0  0  0
  -20.7632   20.9259  -14.5461 C   0  0  0  0  0  0
  -19.9593   21.5533  -15.2321 O   0  0  0  0  0  0
  -21.3118   21.4285  -13.3080 N   0  0  0  0  0  0
  -20.7928   22.7523  -12.9447 C   0  0  0  0  0  0
  -21.8796   23.7588  -12.9559 C   0  0  0  0  0  0
  -21.9525   25.0760  -12.5539 C   0  0  0  0  0  0
  -23.2862   25.4858  -12.7840 C   0  0  0  0  0  0
  -23.9316   24.4038  -13.3346 C   0  0  0  0  0  0
  -23.0840   23.3511  -13.4453 O   0  0  0  0  0  0
  -22.3066   20.8076  -12.2619 C   0  0  0  0  0  0
  -22.9387   21.5834  -11.0434 C   0  0  0  0  0  0
  -22.1778   22.5753  -10.4906 N   0  0  0  0  0  0
  -22.9814   23.5103   -9.9144 N   0  0  0  0  0  0
  -22.4984   24.7780   -9.4255 C   0  0  0  0  0  0
  -24.2773   23.1610   -9.8324 C   0  0  0  0  0  0
  -24.3700   21.5505  -10.4820 C   0  0  0  0  0  0
  -26.2152   21.2052  -11.2763 C   0  0  0  0  0  0
  -27.2230   23.0260  -11.0953 C   0  0  0  0  0  0
  -25.9082   24.2688  -10.0421 C   0  0  0  0  0  0
  1  2  1  0  0  0
  2  3  1  0  0  0
  3  4  2  0  0  0
  3  8  1  0  0  0
  4  5  1  0  0  0
  5  6  1  0  0  0
  5  7  1  0  0  0
  7  8  2  0  0  0
  8  9  1  0  0  0
  9 10  2  0  0  0
  9 11  1  0  0  0
 11 12  1  0  0  0
 11 18  1  0  0  0
 12 13  1  0  0  0
 13 14  2  0  0  0
 13 17  1  0  0  0
 14 15  1  0  0  0
 15 16  2  0  0  0
 16 17  1  0  0  0
 18 19  1  0  0  0
 19 20  2  0  0  0
 19 24  1  0  0  0
 20 21  1  0  0  0
 21 22  1  0  0  0
 21 23  1  0  0  0
 23 24  2  0  0  0
 23 27  1  0  0  0
 24 25  1  0  0  0
 25 26  1  0  0  0
 26 27  1  0  0  0
M  END
>  <CHROM.0>
-60.91329883,65.95414230,-8.22130233,-61.61535860,-29.59366535,177.24812572
-156.01505104,-158.32225404

>  <CHROM.1>
-177.26354101,103.60695109,115.50390066,-171.92640366,171.45475650,-31.31702889
-22.54669898,21.50416122,-12.81803312,-1.17333699,0.25898380,0.54708405

>  <Name>
F6503-4868

>  <RI>
3.64609e+07

>  <Rbt.Current_Directory>
/home/adria/Escritorio/rDock_CMTR_LC/2pxcA_model/inputs_sah

>  <Rbt.Executable>
rbdock ($Id: //depot/dev/client3/rdock/2013.1/src/exe/rbdock.cxx#4 $)

>  <Rbt.Library>
libRbt.so (2013.1, Build901 2013/11/27)

>  <Rbt.Parameter_File>
/home/adria/Escritorio/rDock_2013.1_src/data/scripts/dock.prm

>  <Rbt.Receptor>
sah_rdock.prm

>  <SCORE>
-208.462

>  <SCORE.INTER>
-6.23727

>  <SCORE.INTER.CONST>
1

>  <SCORE.INTER.POLAR>
-0.423965

>  <SCORE.INTER.REPUL>
0.0429178

>  <SCORE.INTER.ROT>
6

>  <SCORE.INTER.VDW>
-16.4104

>  <SCORE.INTER.norm>
-0.23101

>  <SCORE.INTRA>
-195.263

>  <SCORE.INTRA.DIHEDRAL>
-14.6044

>  <SCORE.INTRA.DIHEDRAL.0>
30.9545

>  <SCORE.INTRA.POLAR>
0

>  <SCORE.INTRA.POLAR.0>
0

>  <SCORE.INTRA.REPUL>
0

>  <SCORE.INTRA.REPUL.0>
0

>  <SCORE.INTRA.VDW>
-187.96

>  <SCORE.INTRA.VDW.0>
187.023

>  <SCORE.INTRA.norm>
-7.23195

>  <SCORE.RESTR>
0

>  <SCORE.RESTR.CAVITY>
0

>  <SCORE.RESTR.norm>
0

>  <SCORE.SYSTEM>
-6.96255

>  <SCORE.SYSTEM.CONST>
0

>  <SCORE.SYSTEM.DIHEDRAL>
9.21899

>  <SCORE.SYSTEM.POLAR>
-4.39478

>  <SCORE.SYSTEM.VDW>
3.37021

>  <SCORE.SYSTEM.norm>
-0.257872

>  <SCORE.heavy>
27

>  <SCORE.norm>
-7.72083

$$$$
F6503-4868
  rDOCK(R)          3D
libRbt.so/2013.1/901 2013/11/27
 27 30  0  0  0  0  0  0  0  0999 V2000
  -25.7723   22.6097  -15.2281 C   0  0  0  0  0  0
  -25.1284   23.8458  -15.0261 O   0  0  0  0  0  0
  -24.1499   23.7290  -14.1167 C   0  0  0  0  0  0
  -23.4126   24.8378  -13.9659 N   0  0  0  0  0  0
  -22.8395   24.8005  -12.5779 N   0  0  0  0  0  0
  -21.7303   26.1473  -11.5135 C   0  0  0  0  0  0
  -23.5554   23.5514  -12.1783 C   0  0  0  0  0  0
  -23.9438   22.7471  -13.1752 C   0  0  0  0  0  0
  -24.3225   21.4599  -12.6765 C   0  0  0  0  0  0
  -25.4844   21.2473  -12.3371 O   0  0  0  0  0  0
  -23.2265   20.5773  -12.3507 N   0  0  0  0  0  0
  -23.6408   19.4159  -11.5549 C   0  0  0  0  0  0
  -24.0011   19.8292  -10.1788 C   0  0  0  0  0  0
  -24.8938   20.7498   -9.6713 C   0  0  0  0  0  0
  -24.7434   20.7123   -8.2658 C   0  0  0  0  0  0
  -23.7910   19.7552   -8.0062 C   0  0  0  0  0  0
  -23.3365   19.2116   -9.1623 O   0  0  0  0  0  0
  -21.6836   20.6548  -12.6385 C   0  0  0  0  0  0
  -20.9921   20.2216  -13.9877 C   0  0  0  0  0  0
  -20.1344   21.1244  -14.5512 N   0  0  0  0  0  0
  -19.2014   20.4743  -15.2988 N   0  0  0  0  0  0
  -18.0399   21.1223  -15.8557 C   0  0  0  0  0  0
  -19.4451   19.1649  -15.4835 C   0  0  0  0  0  0
  -20.9624   18.8550  -14.6923 C   0  0  0  0  0  0
  -21.0607   16.9168  -14.0688 C   0  0  0  0  0  0
  -19.1903   16.1114  -14.5342 C   0  0  0  0  0  0
  -18.1854   17.6356  -15.5585 C   0  0  0  0  0  0
  1  2  1  0  0  0
  2  3  1  0  0  0
  3  4  2  0  0  0
  3  8  1  0  0  0
  4  5  1  0  0  0
  5  6  1  0  0  0
  5  7  1  0  0  0
  7  8  2  0  0  0
  8  9  1  0  0  0
  9 10  2  0  0  0
  9 11  1  0  0  0
 11 12  1  0  0  0
 11 18  1  0  0  0
 12 13  1  0  0  0
 13 14  2  0  0  0
 13 17  1  0  0  0
 14 15  1  0  0  0
 15 16  2  0  0  0
 16 17  1  0  0  0
 18 19  1  0  0  0
 19 20  2  0  0  0
 19 24  1  0  0  0
 20 21  1  0  0  0
 21 22  1  0  0  0
 21 23  1  0  0  0
 23 24  2  0  0  0
 23 27  1  0  0  0
 24 25  1  0  0  0
 25 26  1  0  0  0
 26 27  1  0  0  0
M  END
>  <CHROM.0>
-175.36185667,-72.34798662,-47.30569286,65.85203670,168.80163661,54.86848488
-38.13611853,-117.33731084

>  <CHROM.1>
174.09785262,-57.60608688,-70.80741182,-82.51627977,55.40297636,129.68946149
-22.48450815,21.04799584,-12.92714304,-2.97073170,-0.79529781,2.53118825

>  <Name>
F6503-4868

>  <RI>
3.64609e+07

>  <Rbt.Current_Directory>
/home/adria/Escritorio/rDock_CMTR_LC/2pxcA_model/inputs_sah

>  <Rbt.Executable>
rbdock ($Id: //depot/dev/client3/rdock/2013.1/src/exe/rbdock.cxx#4 $)

>  <Rbt.Library>
libRbt.so (2013.1, Build901 2013/11/27)

>  <Rbt.Parameter_File>
/home/adria/Escritorio/rDock_2013.1_src/data/scripts/dock.prm

>  <Rbt.Receptor>
sah_rdock.prm

>  <SCORE>
-198.159

>  <SCORE.INTER>
-4.54051

>  <SCORE.INTER.CONST>
1

>  <SCORE.INTER.POLAR>
-1.74549

>  <SCORE.INTER.REPUL>
0

>  <SCORE.INTER.ROT>
6

>  <SCORE.INTER.VDW>
-10.0059

>  <SCORE.INTER.norm>
-0.168167

>  <SCORE.INTRA>
-193.779

>  <SCORE.INTRA.DIHEDRAL>
-13.4012

>  <SCORE.INTRA.DIHEDRAL.0>
30.9545

>  <SCORE.INTRA.POLAR>
0

>  <SCORE.INTRA.POLAR.0>
0

>  <SCORE.INTRA.REPUL>
0

>  <SCORE.INTRA.REPUL.0>
0

>  <SCORE.INTRA.VDW>
-187.078

>  <SCORE.INTRA.VDW.0>
187.023

>  <SCORE.INTRA.norm>
-7.17698

>  <SCORE.RESTR>
0

>  <SCORE.RESTR.CAVITY>
0

>  <SCORE.RESTR.norm>
0

>  <SCORE.SYSTEM>
0.159683

>  <SCORE.SYSTEM.CONST>
0

>  <SCORE.SYSTEM.DIHEDRAL>
6.89318

>  <SCORE.SYSTEM.POLAR>
-3.49835

>  <SCORE.SYSTEM.REPUL>
0.0373504

>  <SCORE.SYSTEM.VDW>
8.42073

>  <SCORE.SYSTEM.norm>
0.00591419

>  <SCORE.heavy>
27

>  <SCORE.norm>
-7.33924

$$$$
F6503-4868
  rDOCK(R)          3D
libRbt.so/2013.1/901 2013/11/27
 27 30  0  0  0  0  0  0  0  0999 V2000
  -24.0048   26.5538  -12.9268 C   0  0  0  0  0  0
  -22.9128   27.0819  -12.2114 O   0  0  0  0  0  0
  -21.9578   26.1547  -12.0491 C   0  0  0  0  0  0
  -20.8326   26.6244  -11.4931 N   0  0  0  0  0  0
  -20.1594   25.4658  -10.8143 N   0  0  0  0  0  0
  -18.4932   25.3432   -9.6372 C   0  0  0  0  0  0
  -21.2546   24.4927  -11.1079 C   0  0  0  0  0  0
  -22.0426   24.7851  -12.1496 C   0  0  0  0  0  0
  -22.8333   23.6531  -12.5269 C   0  0  0  0  0  0
  -24.0601   23.7258  -12.5145 O   0  0  0  0  0  0
  -22.1134   22.4054  -12.6338 N   0  0  0  0  0  0
  -22.9973   21.2359  -12.7026 C   0  0  0  0  0  0
  -23.2967   20.7288  -11.3434 C   0  0  0  0  0  0
  -22.6287   19.8855  -10.4805 C   0  0  0  0  0  0
  -23.4547   19.7518   -9.3406 C   0  0  0  0  0  0
  -24.5572   20.5409   -9.5697 C   0  0  0  0  0  0
  -24.4683   21.1404  -10.7828 O   0  0  0  0  0  0
  -20.5792   22.0654  -12.6353 C   0  0  0  0  0  0
  -19.9603   20.6783  -13.0585 C   0  0  0  0  0  0
  -20.6038   19.5599  -12.6073 N   0  0  0  0  0  0
  -20.3850   18.5225  -13.4606 N   0  0  0  0  0  0
  -21.0866   17.2655  -13.3764 C   0  0  0  0  0  0
  -19.4533   18.7579  -14.4010 C   0  0  0  0  0  0
  -18.8507   20.3559  -14.0732 C   0  0  0  0  0  0
  -18.1745   21.2302  -15.7859 C   0  0  0  0  0  0
  -18.6172   19.8569  -17.2964 C   0  0  0  0  0  0
  -19.3898   18.1866  -16.2986 C   0  0  0  0  0  0
  1  2  1  0  0  0
  2  3  1  0  0  0
  3  4  2  0  0  0
  3  8  1  0  0  0
  4  5  1  0  0  0
  5  6  1  0  0  0
  5  7  1  0  0  0
  7  8  2  0  0  0
  8  9  1  0  0  0
  9 10  2  0  0  0
  9 11  1  0  0  0
 11 12  1  0  0  0
 11 18  1  0  0  0
 12 13  1  0  0  0
 13 14  2  0  0  0
 13 17  1  0  0  0
 14 15  1  0  0  0
 15 16  2  0  0  0
 16 17  1  0  0  0
 18 19  1  0  0  0
 19 20  2  0  0  0
 19 24  1  0  0  0
 20 21  1  0  0  0
 21 22  1  0  0  0
 21 23  1  0  0  0
 23 24  2  0  0  0
 23 27  1  0  0  0
 24 25  1  0  0  0
 25 26  1  0  0  0
 26 27  1  0  0  0
M  END
>  <CHROM.0>
-62.97064062,-76.98065704,-167.91874179,61.30735180,169.23393843,178.36651176
83.48750343,-162.18433967

>  <CHROM.1>
173.70627079,-26.34637316,-89.29243302,-166.60882589,-83.70210268,-42.64337037
-21.47958496,22.12103391,-12.49119090,-1.98984756,-0.71404475,-3.00118766

>  <Name>
F6503-4868

>  <RI>
3.64609e+07

>  <Rbt.Current_Directory>
/home/adria/Escritorio/rDock_CMTR_LC/2pxcA_model/inputs_sah

>  <Rbt.Executable>
rbdock ($Id: //depot/dev/client3/rdock/2013.1/src/exe/rbdock.cxx#4 $)

>  <Rbt.Library>
libRbt.so (2013.1, Build901 2013/11/27)

>  <Rbt.Parameter_File>
/home/adria/Escritorio/rDock_2013.1_src/data/scripts/dock.prm

>  <Rbt.Receptor>
sah_rdock.prm

>  <SCORE>
-208.11

>  <SCORE.INTER>
-9.34764

>  <SCORE.INTER.CONST>
1

>  <SCORE.INTER.POLAR>
-2.16943

>  <SCORE.INTER.REPUL>
0

>  <SCORE.INTER.ROT>
6

>  <SCORE.INTER.VDW>
-13.3716

>  <SCORE.INTER.norm>
-0.346209

>  <SCORE.INTRA>
-196.283

>  <SCORE.INTRA.DIHEDRAL>
-20.8297

>  <SCORE.INTRA.DIHEDRAL.0>
30.9545

>  <SCORE.INTRA.POLAR>
0

>  <SCORE.INTRA.POLAR.0>
0

>  <SCORE.INTRA.REPUL>
0

>  <SCORE.INTRA.REPUL.0>
0

>  <SCORE.INTRA.VDW>
-185.868

>  <SCORE.INTRA.VDW.0>
187.023

>  <SCORE.INTRA.norm>
-7.26973

>  <SCORE.RESTR>
0

>  <SCORE.RESTR.CAVITY>
0

>  <SCORE.RESTR.norm>
0

>  <SCORE.SYSTEM>
-2.47927

>  <SCORE.SYSTEM.CONST>
0

>  <SCORE.SYSTEM.DIHEDRAL>
3.94284

>  <SCORE.SYSTEM.POLAR>
-3.92848

>  <SCORE.SYSTEM.REPUL>
0.044856

>  <SCORE.SYSTEM.VDW>
8.68186

>  <SCORE.SYSTEM.norm>
-0.0918248

>  <SCORE.heavy>
27

>  <SCORE.norm>
-7.70777

$$$$
F6503-4868
  rDOCK(R)          3D
libRbt.so/2013.1/901 2013/11/27
 27 30  0  0  0  0  0  0  0  0999 V2000
  -23.9951   26.5454  -12.8921 C   0  0  0  0  0  0
  -22.8829   27.0795  -12.2133 O   0  0  0  0  0  0
  -21.9335   26.1469  -12.0490 C   0  0  0  0  0  0
  -20.8098   26.6086  -11.4834 N   0  0  0  0  0  0
  -20.1467   25.4437  -10.8055 N   0  0  0  0  0  0
  -18.4889   25.3075   -9.6181 C   0  0  0  0  0  0
  -21.2446   24.4772  -11.1108 C   0  0  0  0  0  0
  -22.0244   24.7782  -12.1563 C   0  0  0  0  0  0
  -22.8180   23.6519  -12.5440 C   0  0  0  0  0  0
  -24.0447   23.7226  -12.5160 O   0  0  0  0  0  0
  -22.0979   22.4072  -12.6809 N   0  0  0  0  0  0
  -22.9811   21.2378  -12.7597 C   0  0  0  0  0  0
  -23.2190   20.6731  -11.4111 C   0  0  0  0  0  0
  -22.9575   21.1284  -10.1359 C   0  0  0  0  0  0
  -23.3837   20.1063   -9.2565 C   0  0  0  0  0  0
  -23.9006   19.1083  -10.0485 C   0  0  0  0  0  0
  -23.8072   19.4452  -11.3587 O   0  0  0  0  0  0
  -20.5634   22.0694  -12.7062 C   0  0  0  0  0  0
  -19.9509   20.6731  -13.1076 C   0  0  0  0  0  0
  -20.5990   19.5648  -12.6384 N   0  0  0  0  0  0
  -20.3853   18.5130  -13.4752 N   0  0  0  0  0  0
  -21.0923   17.2606  -13.3707 C   0  0  0  0  0  0
  -19.4531   18.7294  -14.4197 C   0  0  0  0  0  0
  -18.8433   20.3298  -14.1176 C   0  0  0  0  0  0
  -18.1641   21.1737  -15.8443 C   0  0  0  0  0  0
  -18.6137   19.7786  -17.3325 C   0  0  0  0  0  0
  -19.3931   18.1278  -16.3080 C   0  0  0  0  0  0
  1  2  1  0  0  0
  2  3  1  0  0  0
  3  4  2  0  0  0
  3  8  1  0  0  0
  4  5  1  0  0  0
  5  6  1  0  0  0
  5  7  1  0  0  0
  7  8  2  0  0  0
  8  9  1  0  0  0
  9 10  2  0  0  0
  9 11  1  0  0  0
 11 12  1  0  0  0
 11 18  1  0  0  0
 12 13  1  0  0  0
 13 14  2  0  0  0
 13 17  1  0  0  0
 14 15  1  0  0  0
 15 16  2  0  0  0
 16 17  1  0  0  0
 18 19  1  0  0  0
 19 20  2  0  0  0
 19 24  1  0  0  0
 20 21  1  0  0  0
 21 22  1  0  0  0
 21 23  1  0  0  0
 23 24  2  0  0  0
 23 27  1  0  0  0
 24 25  1  0  0  0
 25 26  1  0  0  0
 26 27  1  0  0  0
M  END
>  <CHROM.0>
-57.11535249,-72.34156583,-169.36938612,67.04548658,167.57751148,62.91363715
-37.58203033,-161.21808284

>  <CHROM.1>
176.02729900,-27.67038353,-91.62517434,-169.09083621,11.51973098,-41.31327626
-21.42556615,22.03769771,-12.53397180,-1.92134210,-0.73957300,-2.99431340

>  <Name>
F6503-4868

>  <RI>
3.64609e+07

>  <Rbt.Current_Directory>
/home/adria/Escritorio/rDock_CMTR_LC/2pxcA_model/inputs_sah

>  <Rbt.Executable>
rbdock ($Id: //depot/dev/client3/rdock/2013.1/src/exe/rbdock.cxx#4 $)

>  <Rbt.Library>
libRbt.so (2013.1, Build901 2013/11/27)

>  <Rbt.Parameter_File>
/home/adria/Escritorio/rDock_2013.1_src/data/scripts/dock.prm

>  <Rbt.Receptor>
sah_rdock.prm

>  <SCORE>
-208.816

>  <SCORE.INTER>
-9.45665

>  <SCORE.INTER.CONST>
1

>  <SCORE.INTER.POLAR>
-2.15116

>  <SCORE.INTER.REPUL>
0

>  <SCORE.INTER.ROT>
6

>  <SCORE.INTER.VDW>
-13.5427

>  <SCORE.INTER.norm>
-0.350246

>  <SCORE.INTRA>
-196.977

>  <SCORE.INTRA.DIHEDRAL>
-22.1909

>  <SCORE.INTRA.DIHEDRAL.0>
30.9545

>  <SCORE.INTRA.POLAR>
0

>  <SCORE.INTRA.POLAR.0>
0

>  <SCORE.INTRA.REPUL>
0

>  <SCORE.INTRA.REPUL.0>
0

>  <SCORE.INTRA.VDW>
-185.882

>  <SCORE.INTRA.VDW.0>
187.023

>  <SCORE.INTRA.norm>
-7.29545

>  <SCORE.RESTR>
0

>  <SCORE.RESTR.CAVITY>
0

>  <SCORE.RESTR.norm>
0

>  <SCORE.SYSTEM>
-2.38218

>  <SCORE.SYSTEM.CONST>
0

>  <SCORE.SYSTEM.DIHEDRAL>
3.63869

>  <SCORE.SYSTEM.POLAR>
-3.82962

>  <SCORE.SYSTEM.REPUL>
0.0373386

>  <SCORE.SYSTEM.VDW>
8.6325

>  <SCORE.SYSTEM.norm>
-0.0882288

>  <SCORE.heavy>
27

>  <SCORE.norm>
-7.73393

$$$$
F6503-4868
  rDOCK(R)          3D
libRbt.so/2013.1/901 2013/11/27
 27 30  0  0  0  0  0  0  0  0999 V2000
  -19.2026   21.9281  -14.9877 C   0  0  0  0  0  0
  -20.4392   21.5324  -14.4425 O   0  0  0  0  0  0
  -20.7326   20.2723  -14.7951 C   0  0  0  0  0  0
  -21.9280   19.8504  -14.3606 N   0  0  0  0  0  0
  -22.3810   18.7681  -15.2985 N   0  0  0  0  0  0
  -24.1220   17.7059  -15.4314 C   0  0  0  0  0  0
  -21.2178   18.9085  -16.2258 C   0  0  0  0  0  0
  -20.1099   19.4521  -15.7075 C   0  0  0  0  0  0
  -18.9869   19.2471  -16.5710 C   0  0  0  0  0  0
  -18.5651   20.1702  -17.2642 O   0  0  0  0  0  0
  -18.6007   17.8688  -16.7648 N   0  0  0  0  0  0
  -17.6730   17.6840  -17.8868 C   0  0  0  0  0  0
  -16.4042   17.0793  -17.4193 C   0  0  0  0  0  0
  -15.8033   16.9810  -16.1818 C   0  0  0  0  0  0
  -14.5700   16.3222  -16.3930 C   0  0  0  0  0  0
  -14.5106   16.0383  -17.7370 C   0  0  0  0  0  0
  -15.6220   16.4921  -18.3678 O   0  0  0  0  0  0
  -19.0251   16.5391  -16.0427 C   0  0  0  0  0  0
  -18.9139   15.0955  -16.6668 C   0  0  0  0  0  0
  -19.0564   15.0043  -18.0232 N   0  0  0  0  0  0
  -18.3837   13.9167  -18.4886 N   0  0  0  0  0  0
  -18.1702   13.6570  -19.8908 C   0  0  0  0  0  0
  -17.9263   13.0897  -17.5322 C   0  0  0  0  0  0
  -18.4685   13.7702  -16.0264 C   0  0  0  0  0  0
  -17.1994   13.2624  -14.5144 C   0  0  0  0  0  0
  -15.6529   12.2119  -15.4462 C   0  0  0  0  0  0
  -16.2391   12.0516  -17.4494 C   0  0  0  0  0  0
  1  2  1  0  0  0
  2  3  1  0  0  0
  3  4  2  0  0  0
  3  8  1  0  0  0
  4  5  1  0  0  0
  5  6  1  0  0  0
  5  7  1  0  0  0
  7  8  2  0  0  0
  8  9  1  0  0  0
  9 10  2  0  0  0
  9 11  1  0  0  0
 11 12  1  0  0  0
 11 18  1  0  0  0
 12 13  1  0  0  0
 13 14  2  0  0  0
 13 17  1  0  0  0
 14 15  1  0  0  0
 15 16  2  0  0  0
 16 17  1  0  0  0
 18 19  1  0  0  0
 19 20  2  0  0  0
 19 24  1  0  0  0
 20 21  1  0  0  0
 21 22  1  0  0  0
 21 23  1  0  0  0
 23 24  2  0  0  0
 23 27  1  0  0  0
 24 25  1  0  0  0
 25 26  1  0  0  0
 26 27  1  0  0  0
M  END
>  <CHROM.0>
-60.40442582,67.28332614,-8.40456989,65.14236376,-28.51837734,-177.11093744
82.94040308,-164.49316038

>  <CHROM.1>
-177.08811618,-43.42097173,120.60141554,157.47498658,-19.47128912,-31.08615927
-18.53701456,16.89368806,-16.52383422,-2.18108535,-0.22184051,-2.98198340

>  <Name>
F6503-4868

>  <RI>
3.64609e+07

>  <Rbt.Current_Directory>
/home/adria/Escritorio/rDock_CMTR_LC/2pxcA_model/inputs_sah

>  <Rbt.Executable>
rbdock ($Id: //depot/dev/client3/rdock/2013.1/src/exe/rbdock.cxx#4 $)

>  <Rbt.Library>
libRbt.so (2013.1, Build901 2013/11/27)

>  <Rbt.Parameter_File>
/home/adria/Escritorio/rDock_2013.1_src/data/scripts/dock.prm

>  <Rbt.Receptor>
sah_rdock.prm

>  <SCORE>
-211.602

>  <SCORE.INTER>
-7.71569

>  <SCORE.INTER.CONST>
1

>  <SCORE.INTER.POLAR>
0

>  <SCORE.INTER.REPUL>
0

>  <SCORE.INTER.ROT>
6

>  <SCORE.INTER.VDW>
-19.1157

>  <SCORE.INTER.norm>
-0.285766

>  <SCORE.INTRA>
-197.022

>  <SCORE.INTRA.DIHEDRAL>
-19.3332

>  <SCORE.INTRA.DIHEDRAL.0>
30.9545

>  <SCORE.INTRA.POLAR>
0

>  <SCORE.INTRA.POLAR.0>
0

>  <SCORE.INTRA.REPUL>
0

>  <SCORE.INTRA.REPUL.0>
0

>  <SCORE.INTRA.VDW>
-187.356

>  <SCORE.INTRA.VDW.0>
187.023

>  <SCORE.INTRA.norm>
-7.29712

>  <SCORE.RESTR>
0

>  <SCORE.RESTR.CAVITY>
0

>  <SCORE.RESTR.norm>
0

>  <SCORE.SYSTEM>
-6.86415

>  <SCORE.SYSTEM.CONST>
0

>  <SCORE.SYSTEM.DIHEDRAL>
9.21009

>  <SCORE.SYSTEM.POLAR>
-4.29754

>  <SCORE.SYSTEM.VDW>
3.14243

>  <SCORE.SYSTEM.norm>
-0.254228

>  <SCORE.heavy>
27

>  <SCORE.norm>
-7.83711

$$$$
F6503-4868
  rDOCK(R)          3D
libRbt.so/2013.1/901 2013/11/27
 27 30  0  0  0  0  0  0  0  0999 V2000
  -21.8452   17.9789  -17.1557 C   0  0  0  0  0  0
  -22.3986   18.2653  -15.8929 O   0  0  0  0  0  0
  -21.7269   19.2594  -15.2940 C   0  0  0  0  0  0
  -22.2783   19.6732  -14.1448 N   0  0  0  0  0  0
  -21.1754   20.2663  -13.3152 N   0  0  0  0  0  0
  -21.1326   20.9945  -11.4061 C   0  0  0  0  0  0
  -20.0899   19.9236  -14.2832 C   0  0  0  0  0  0
  -20.4661   19.7443  -15.5552 C   0  0  0  0  0  0
  -19.3319   19.7387  -16.4284 C   0  0  0  0  0  0
  -19.1060   20.7058  -17.1524 O   0  0  0  0  0  0
  -18.6835   18.4581  -16.5898 N   0  0  0  0  0  0
  -17.7469   18.4263  -17.7192 C   0  0  0  0  0  0
  -16.4073   18.8982  -17.2983 C   0  0  0  0  0  0
  -15.1985   18.2628  -17.1058 C   0  0  0  0  0  0
  -14.2977   19.2558  -16.6562 C   0  0  0  0  0  0
  -15.0059   20.4340  -16.6293 C   0  0  0  0  0  0
  -16.2877   20.2267  -17.0205 O   0  0  0  0  0  0
  -18.8316   17.0930  -15.8257 C   0  0  0  0  0  0
  -18.7366   15.6676  -16.4931 C   0  0  0  0  0  0
  -18.4876   15.6383  -17.8368 N   0  0  0  0  0  0
  -17.8596   14.4771  -18.1673 N   0  0  0  0  0  0
  -17.2825   14.2297  -19.4654 C   0  0  0  0  0  0
  -17.8162   13.5637  -17.1815 C   0  0  0  0  0  0
  -18.6787   14.2728  -15.8482 C   0  0  0  0  0  0
  -17.9863   13.5384  -14.0774 C   0  0  0  0  0  0
  -16.3897   12.2979  -14.6022 C   0  0  0  0  0  0
  -16.3811   12.2850  -16.6956 C   0  0  0  0  0  0
  1  2  1  0  0  0
  2  3  1  0  0  0
  3  4  2  0  0  0
  3  8  1  0  0  0
  4  5  1  0  0  0
  5  6  1  0  0  0
  5  7  1  0  0  0
  7  8  2  0  0  0
  8  9  1  0  0  0
  9 10  2  0  0  0
  9 11  1  0  0  0
 11 12  1  0  0  0
 11 18  1  0  0  0
 12 13  1  0  0  0
 13 14  2  0  0  0
 13 17  1  0  0  0
 14 15  1  0  0  0
 15 16  2  0  0  0
 16 17  1  0  0  0
 18 19  1  0  0  0
 19 20  2  0  0  0
 19 24  1  0  0  0
 20 21  1  0  0  0
 21 22  1  0  0  0
 21 23  1  0  0  0
 23 24  2  0  0  0
 23 27  1  0  0  0
 24 25  1  0  0  0
 25 26  1  0  0  0
 26 27  1  0  0  0
M  END
>  <CHROM.0>
179.60415229,64.79939033,-48.24155903,144.97005976,168.31498354,-178.02640257
-36.51271261,-158.72446922

>  <CHROM.1>
173.83412720,106.84095535,86.94442130,143.92693445,108.91531689,0.94711304
-18.61138958,17.56436176,-16.14361899,2.17292080,0.48052238,0.05419605

>  <Name>
F6503-4868

>  <RI>
3.64609e+07

>  <Rbt.Current_Directory>
/home/adria/Escritorio/rDock_CMTR_LC/2pxcA_model/inputs_sah

>  <Rbt.Executable>
rbdock ($Id: //depot/dev/client3/rdock/2013.1/src/exe/rbdock.cxx#4 $)

>  <Rbt.Library>
libRbt.so (2013.1, Build901 2013/11/27)

>  <Rbt.Parameter_File>
/home/adria/Escritorio/rDock_2013.1_src/data/scripts/dock.prm

>  <Rbt.Receptor>
sah_rdock.prm

>  <SCORE>
-206.143

>  <SCORE.INTER>
-12.7492

>  <SCORE.INTER.CONST>
1

>  <SCORE.INTER.POLAR>
-0.827673

>  <SCORE.INTER.REPUL>
0

>  <SCORE.INTER.ROT>
6

>  <SCORE.INTER.VDW>
-21.3351

>  <SCORE.INTER.norm>
-0.472193

>  <SCORE.INTRA>
-194.87

>  <SCORE.INTRA.DIHEDRAL>
-14.0582

>  <SCORE.INTRA.DIHEDRAL.0>
30.9545

>  <SCORE.INTRA.POLAR>
0

>  <SCORE.INTRA.POLAR.0>
0

>  <SCORE.INTRA.REPUL>
0

>  <SCORE.INTRA.REPUL.0>
0

>  <SCORE.INTRA.VDW>
-187.841

>  <SCORE.INTRA.VDW.0>
187.023

>  <SCORE.INTRA.norm>
-7.21743

>  <SCORE.RESTR>
0

>  <SCORE.RESTR.CAVITY>
0

>  <SCORE.RESTR.norm>
0

>  <SCORE.SYSTEM>
1.47683

>  <SCORE.SYSTEM.CONST>
0

>  <SCORE.SYSTEM.DIHEDRAL>
7.4746

>  <SCORE.SYSTEM.POLAR>
-3.56872

>  <SCORE.SYSTEM.VDW>
9.87318

>  <SCORE.SYSTEM.norm>
0.0546975

>  <SCORE.heavy>
27

>  <SCORE.norm>
-7.63492

$$$$
F6503-4868
  rDOCK(R)          3D
libRbt.so/2013.1/901 2013/11/27
 27 30  0  0  0  0  0  0  0  0999 V2000
  -26.5417   17.9876  -12.7428 C   0  0  0  0  0  0
  -25.5644   17.6025  -13.6808 O   0  0  0  0  0  0
  -24.3764   17.4266  -13.0844 C   0  0  0  0  0  0
  -23.3974   17.0563  -13.9212 N   0  0  0  0  0  0
  -22.1010   17.5031  -13.3080 N   0  0  0  0  0  0
  -20.1729   17.4538  -13.9841 C   0  0  0  0  0  0
  -22.7408   18.1968  -12.1495 C   0  0  0  0  0  0
  -23.9712   17.7858  -11.8196 C   0  0  0  0  0  0
  -24.3483   18.2820  -10.5310 C   0  0  0  0  0  0
  -24.3486   17.5322   -9.5571 O   0  0  0  0  0  0
  -24.9720   19.5848  -10.5295 N   0  0  0  0  0  0
  -25.6237   19.9086   -9.2550 C   0  0  0  0  0  0
  -24.9768   21.0815   -8.6225 C   0  0  0  0  0  0
  -23.6818   21.3505   -8.2318 C   0  0  0  0  0  0
  -23.7056   22.6369   -7.6451 C   0  0  0  0  0  0
  -25.0040   23.0791   -7.7399 C   0  0  0  0  0  0
  -25.7827   22.1417   -8.3349 O   0  0  0  0  0  0
  -25.1287   20.6845  -11.6410 C   0  0  0  0  0  0
  -24.1406   21.8929  -11.8639 C   0  0  0  0  0  0
  -24.2573   22.9443  -10.9983 N   0  0  0  0  0  0
  -23.0647   23.5908  -10.8897 N   0  0  0  0  0  0
  -22.8038   24.6130   -9.9066 C   0  0  0  0  0  0
  -22.1340   23.2020  -11.7788 C   0  0  0  0  0  0
  -22.9121   22.0128  -12.7811 C   0  0  0  0  0  0
  -21.5431   20.6985  -13.5249 C   0  0  0  0  0  0
  -19.7331   21.2592  -12.6457 C   0  0  0  0  0  0
  -20.1747   22.9931  -11.5588 C   0  0  0  0  0  0
  1  2  1  0  0  0
  2  3  1  0  0  0
  3  4  2  0  0  0
  3  8  1  0  0  0
  4  5  1  0  0  0
  5  6  1  0  0  0
  5  7  1  0  0  0
  7  8  2  0  0  0
  8  9  1  0  0  0
  9 10  2  0  0  0
  9 11  1  0  0  0
 11 12  1  0  0  0
 11 18  1  0  0  0
 12 13  1  0  0  0
 13 14  2  0  0  0
 13 17  1  0  0  0
 14 15  1  0  0  0
 15 16  2  0  0  0
 16 17  1  0  0  0
 18 19  1  0  0  0
 19 20  2  0  0  0
 19 24  1  0  0  0
 20 21  1  0  0  0
 21 22  1  0  0  0
 21 23  1  0  0  0
 23 24  2  0  0  0
 23 27  1  0  0  0
 24 25  1  0  0  0
 25 26  1  0  0  0
 26 27  1  0  0  0
M  END
>  <CHROM.0>
-172.80790031,-73.49003462,108.21345737,-60.45253274,33.80133855,64.19456521
83.37177067,-161.78776142

>  <CHROM.1>
179.92389577,108.30410903,116.79305517,-93.21743152,-57.23184445,-77.61052096
-23.61166048,20.36073468,-11.22292324,-1.47440905,0.62752723,0.57303172

>  <Name>
F6503-4868

>  <RI>
3.64609e+07

>  <Rbt.Current_Directory>
/home/adria/Escritorio/rDock_CMTR_LC/2pxcA_model/inputs_sah

>  <Rbt.Executable>
rbdock ($Id: //depot/dev/client3/rdock/2013.1/src/exe/rbdock.cxx#4 $)

>  <Rbt.Library>
libRbt.so (2013.1, Build901 2013/11/27)

>  <Rbt.Parameter_File>
/home/adria/Escritorio/rDock_2013.1_src/data/scripts/dock.prm

>  <Rbt.Receptor>
sah_rdock.prm

>  <SCORE>
-191.817

>  <SCORE.INTER>
-1.2161

>  <SCORE.INTER.CONST>
1

>  <SCORE.INTER.POLAR>
-0.0718192

>  <SCORE.INTER.REPUL>
0

>  <SCORE.INTER.ROT>
6

>  <SCORE.INTER.VDW>
-12.3719

>  <SCORE.INTER.norm>
-0.0450408

>  <SCORE.INTRA>
-195.901

>  <SCORE.INTRA.DIHEDRAL>
-14.2982

>  <SCORE.INTRA.DIHEDRAL.0>
30.9545

>  <SCORE.INTRA.POLAR>
0

>  <SCORE.INTRA.POLAR.0>
0

>  <SCORE.INTRA.REPUL>
0

>  <SCORE.INTRA.REPUL.0>
0

>  <SCORE.INTRA.VDW>
-188.752

>  <SCORE.INTRA.VDW.0>
187.023

>  <SCORE.INTRA.norm>
-7.25559

>  <SCORE.RESTR>
0

>  <SCORE.RESTR.CAVITY>
0

>  <SCORE.RESTR.norm>
0

>  <SCORE.SYSTEM>
5.30008

>  <SCORE.SYSTEM.CONST>
0

>  <SCORE.SYSTEM.DIHEDRAL>
8.97092

>  <SCORE.SYSTEM.POLAR>
-4.25672

>  <SCORE.SYSTEM.REPUL>
0.0393989

>  <SCORE.SYSTEM.VDW>
15.0905

>  <SCORE.SYSTEM.norm>
0.196299

>  <SCORE.heavy>
27

>  <SCORE.norm>
-7.10433

$$$$
F6503-4868
  rDOCK(R)          3D
libRbt.so/2013.1/901 2013/11/27
 27 30  0  0  0  0  0  0  0  0999 V2000
  -22.2636   17.9242  -16.0644 C   0  0  0  0  0  0
  -22.1675   17.5251  -14.7173 O   0  0  0  0  0  0
  -20.9258   17.7214  -14.2509 C   0  0  0  0  0  0
  -19.9826   17.7315  -15.2027 N   0  0  0  0  0  0
  -18.8370   18.5501  -14.6794 N   0  0  0  0  0  0
  -17.0863   19.1669  -15.5346 C   0  0  0  0  0  0
  -19.5283   18.9417  -13.4139 C   0  0  0  0  0  0
  -20.5151   18.1353  -13.0046 C   0  0  0  0  0  0
  -20.8811   18.4208  -11.6506 C   0  0  0  0  0  0
  -20.8099   17.5423  -10.7940 O   0  0  0  0  0  0
  -21.5773   19.6703  -11.4496 N   0  0  0  0  0  0
  -22.2080   19.7709  -10.1283 C   0  0  0  0  0  0
  -23.6482   19.4348  -10.2118 C   0  0  0  0  0  0
  -24.3430   18.3852  -10.7754 C   0  0  0  0  0  0
  -25.7136   18.6571  -10.5584 C   0  0  0  0  0  0
  -25.7650   19.8375   -9.8552 C   0  0  0  0  0  0
  -24.5148   20.3156   -9.6377 O   0  0  0  0  0  0
  -21.8292   20.9046  -12.3891 C   0  0  0  0  0  0
  -23.1949   21.6825  -12.5142 C   0  0  0  0  0  0
  -24.2022   21.0439  -13.1820 N   0  0  0  0  0  0
  -25.4091   21.4850  -12.7338 N   0  0  0  0  0  0
  -26.6616   20.8662  -13.0907 C   0  0  0  0  0  0
  -25.3479   22.5557  -11.9227 C   0  0  0  0  0  0
  -23.6635   22.9789  -11.8323 C   0  0  0  0  0  0
  -23.2514   23.8979  -10.0602 C   0  0  0  0  0  0
  -25.0476   23.8337   -8.9958 C   0  0  0  0  0  0
  -26.4349   23.0051  -10.3266 C   0  0  0  0  0  0
  1  2  1  0  0  0
  2  3  1  0  0  0
  3  4  2  0  0  0
  3  8  1  0  0  0
  4  5  1  0  0  0
  5  6  1  0  0  0
  5  7  1  0  0  0
  7  8  2  0  0  0
  8  9  1  0  0  0
  9 10  2  0  0  0
  9 11  1  0  0  0
 11 12  1  0  0  0
 11 18  1  0  0  0
 12 13  1  0  0  0
 13 14  2  0  0  0
 13 17  1  0  0  0
 14 15  1  0  0  0
 15 16  2  0  0  0
 16 17  1  0  0  0
 18 19  1  0  0  0
 19 20  2  0  0  0
 19 24  1  0  0  0
 20 21  1  0  0  0
 21 22  1  0  0  0
 21 23  1  0  0  0
 23 24  2  0  0  0
 23 27  1  0  0  0
 24 25  1  0  0  0
 25 26  1  0  0  0
 26 27  1  0  0  0
M  END
>  <CHROM.0>
-60.74631230,64.30078006,76.41078940,64.06856072,168.20630381,64.14355896
-173.21271223,-160.27436991

>  <CHROM.1>
-24.54122387,91.42736541,-98.46678608,137.57274156,49.27606181,-73.10717324
-22.79325287,19.97558601,-12.20942545,0.73918631,-0.24125032,-2.59439055

>  <Name>
F6503-4868

>  <RI>
3.64609e+07

>  <Rbt.Current_Directory>
/home/adria/Escritorio/rDock_CMTR_LC/2pxcA_model/inputs_sah

>  <Rbt.Executable>
rbdock ($Id: //depot/dev/client3/rdock/2013.1/src/exe/rbdock.cxx#4 $)

>  <Rbt.Library>
libRbt.so (2013.1, Build901 2013/11/27)

>  <Rbt.Parameter_File>
/home/adria/Escritorio/rDock_2013.1_src/data/scripts/dock.prm

>  <Rbt.Receptor>
sah_rdock.prm

>  <SCORE>
-198.712

>  <SCORE.INTER>
-6.40884

>  <SCORE.INTER.CONST>
1

>  <SCORE.INTER.POLAR>
-0.902466

>  <SCORE.INTER.REPUL>
0

>  <SCORE.INTER.ROT>
6

>  <SCORE.INTER.VDW>
-14.7405

>  <SCORE.INTER.norm>
-0.237365

>  <SCORE.INTRA>
-190.625

>  <SCORE.INTRA.DIHEDRAL>
-9.13792

>  <SCORE.INTRA.DIHEDRAL.0>
30.9545

>  <SCORE.INTRA.POLAR>
0

>  <SCORE.INTRA.POLAR.0>
0

>  <SCORE.INTRA.REPUL>
0

>  <SCORE.INTRA.REPUL.0>
0

>  <SCORE.INTRA.VDW>
-186.056

>  <SCORE.INTRA.VDW.0>
187.023

>  <SCORE.INTRA.norm>
-7.0602

>  <SCORE.RESTR>
0

>  <SCORE.RESTR.CAVITY>
0

>  <SCORE.RESTR.norm>
0

>  <SCORE.SYSTEM>
-1.67755

>  <SCORE.SYSTEM.CONST>
0

>  <SCORE.SYSTEM.DIHEDRAL>
2.16691

>  <SCORE.SYSTEM.POLAR>
-3.22472

>  <SCORE.SYSTEM.VDW>
8.20305

>  <SCORE.SYSTEM.norm>
-0.0621315

>  <SCORE.heavy>
27

>  <SCORE.norm>
-7.35969

$$$$
F6503-4868
  rDOCK(R)          3D
libRbt.so/2013.1/901 2013/11/27
 27 30  0  0  0  0  0  0  0  0999 V2000
  -23.3047   17.0220  -14.0572 C   0  0  0  0  0  0
  -23.9400   17.3971  -12.8577 O   0  0  0  0  0  0
  -23.2707   18.3910  -12.2559 C   0  0  0  0  0  0
  -23.9054   18.9106  -11.1962 N   0  0  0  0  0  0
  -22.8548   19.4971  -10.2971 N   0  0  0  0  0  0
  -22.9545   20.3486   -8.4419 C   0  0  0  0  0  0
  -21.7029   19.0314  -11.1270 C   0  0  0  0  0  0
  -21.9631   18.7878  -12.4172 C   0  0  0  0  0  0
  -20.7516   18.6616  -13.1688 C   0  0  0  0  0  0
  -20.4933   17.6103  -13.7507 O   0  0  0  0  0  0
  -19.7806   19.7095  -12.9552 N   0  0  0  0  0  0
  -18.4521   19.3786  -13.4837 C   0  0  0  0  0  0
  -18.3905   19.6424  -14.9400 C   0  0  0  0  0  0
  -19.2768   20.1986  -15.8384 C   0  0  0  0  0  0
  -18.6492   20.1335  -17.1039 C   0  0  0  0  0  0
  -17.4138   19.5683  -16.8921 C   0  0  0  0  0  0
  -17.2470   19.2694  -15.5800 O   0  0  0  0  0  0
  -19.8652   21.0977  -12.2236 C   0  0  0  0  0  0
  -21.0900   22.0877  -12.3005 C   0  0  0  0  0  0
  -22.2959   21.5413  -12.6406 N   0  0  0  0  0  0
  -23.3073   22.2858  -12.1162 N   0  0  0  0  0  0
  -24.6867   21.8655  -12.1227 C   0  0  0  0  0  0
  -22.9215   23.4589  -11.5844 C   0  0  0  0  0  0
  -21.2070   23.5562  -11.8593 C   0  0  0  0  0  0
  -20.3168   24.6987  -10.4251 C   0  0  0  0  0  0
  -21.8569   25.1891   -9.1018 C   0  0  0  0  0  0
  -23.5905   24.4073   -9.9769 C   0  0  0  0  0  0
  1  2  1  0  0  0
  2  3  1  0  0  0
  3  4  2  0  0  0
  3  8  1  0  0  0
  4  5  1  0  0  0
  5  6  1  0  0  0
  5  7  1  0  0  0
  7  8  2  0  0  0
  8  9  1  0  0  0
  9 10  2  0  0  0
  9 11  1  0  0  0
 11 12  1  0  0  0
 11 18  1  0  0  0
 12 13  1  0  0  0
 13 14  2  0  0  0
 13 17  1  0  0  0
 14 15  1  0  0  0
 15 16  2  0  0  0
 16 17  1  0  0  0
 18 19  1  0  0  0
 19 20  2  0  0  0
 19 24  1  0  0  0
 20 21  1  0  0  0
 21 22  1  0  0  0
 21 23  1  0  0  0
 23 24  2  0  0  0
 23 27  1  0  0  0
 24 25  1  0  0  0
 25 26  1  0  0  0
 26 27  1  0  0  0
M  END
>  <CHROM.0>
-172.23245919,66.25887035,-127.04895067,65.21988958,-30.31567426,57.91849059
83.30321089,-159.94343139

>  <CHROM.1>
172.18262491,-28.10657113,81.59069639,-40.50378144,4.88725608,22.39111561
-21.34138874,20.46706343,-12.60389727,0.82918877,-0.63118065,-2.70286512

>  <Name>
F6503-4868

>  <RI>
3.64609e+07

>  <Rbt.Current_Directory>
/home/adria/Escritorio/rDock_CMTR_LC/2pxcA_model/inputs_sah

>  <Rbt.Executable>
rbdock ($Id: //depot/dev/client3/rdock/2013.1/src/exe/rbdock.cxx#4 $)

>  <Rbt.Library>
libRbt.so (2013.1, Build901 2013/11/27)

>  <Rbt.Parameter_File>
/home/adria/Escritorio/rDock_2013.1_src/data/scripts/dock.prm

>  <Rbt.Receptor>
sah_rdock.prm

>  <SCORE>
-212.952

>  <SCORE.INTER>
-9.05021

>  <SCORE.INTER.CONST>
1

>  <SCORE.INTER.POLAR>
0

>  <SCORE.INTER.REPUL>
0

>  <SCORE.INTER.ROT>
6

>  <SCORE.INTER.VDW>
-20.4502

>  <SCORE.INTER.norm>
-0.335193

>  <SCORE.INTRA>
-197.834

>  <SCORE.INTRA.DIHEDRAL>
-20.0146

>  <SCORE.INTRA.DIHEDRAL.0>
30.9545

>  <SCORE.INTRA.POLAR>
0

>  <SCORE.INTRA.POLAR.0>
0

>  <SCORE.INTRA.REPUL>
0

>  <SCORE.INTRA.REPUL.0>
0

>  <SCORE.INTRA.VDW>
-187.827

>  <SCORE.INTRA.VDW.0>
187.023

>  <SCORE.INTRA.norm>
-7.32718

>  <SCORE.RESTR>
0

>  <SCORE.RESTR.CAVITY>
0

>  <SCORE.RESTR.norm>
0

>  <SCORE.SYSTEM>
-6.06817

>  <SCORE.SYSTEM.CONST>
0

>  <SCORE.SYSTEM.DIHEDRAL>
9.39514

>  <SCORE.SYSTEM.POLAR>
-4.18717

>  <SCORE.SYSTEM.VDW>
3.47063

>  <SCORE.SYSTEM.norm>
-0.224747

>  <SCORE.heavy>
27

>  <SCORE.norm>
-7.88712

$$$$
F6503-4868
  rDOCK(R)          3D
libRbt.so/2013.1/901 2013/11/27
 27 30  0  0  0  0  0  0  0  0999 V2000
  -24.8392   24.6619  -12.2873 C   0  0  0  0  0  0
  -23.8129   25.6141  -12.1347 O   0  0  0  0  0  0
  -22.6395   25.0131  -11.8897 C   0  0  0  0  0  0
  -21.6024   25.8578  -11.8081 N   0  0  0  0  0  0
  -20.5629   25.1977  -10.9479 N   0  0  0  0  0  0
  -18.7657   25.8472  -10.2232 C   0  0  0  0  0  0
  -21.4039   24.0059  -10.6242 C   0  0  0  0  0  0
  -22.3855   23.7216  -11.4888 C   0  0  0  0  0  0
  -22.9073   22.4091  -11.2573 C   0  0  0  0  0  0
  -24.0356   22.2671  -10.7911 O   0  0  0  0  0  0
  -21.9418   21.3378  -11.3384 N   0  0  0  0  0  0
  -22.4397   20.0722  -10.7867 C   0  0  0  0  0  0
  -23.1077   19.2722  -11.8392 C   0  0  0  0  0  0
  -23.3353   19.4803  -13.1835 C   0  0  0  0  0  0
  -24.0695   18.3604  -13.6376 C   0  0  0  0  0  0
  -24.2186   17.5316  -12.5507 C   0  0  0  0  0  0
  -23.6350   18.0763  -11.4545 O   0  0  0  0  0  0
  -20.4571   21.2876  -11.8506 C   0  0  0  0  0  0
  -19.8258   20.1047  -12.6804 C   0  0  0  0  0  0
  -20.3455   18.8597  -12.4607 N   0  0  0  0  0  0
  -20.1845   18.0872  -13.5694 N   0  0  0  0  0  0
  -20.8019   16.7941  -13.7310 C   0  0  0  0  0  0
  -19.3960   18.6247  -14.5167 C   0  0  0  0  0  0
  -18.8413   20.1370  -13.8613 C   0  0  0  0  0  0
  -18.4394   21.4604  -15.3585 C   0  0  0  0  0  0
  -19.0006   20.4705  -17.1102 C   0  0  0  0  0  0
  -19.5483   18.5470  -16.4920 C   0  0  0  0  0  0
  1  2  1  0  0  0
  2  3  1  0  0  0
  3  4  2  0  0  0
  3  8  1  0  0  0
  4  5  1  0  0  0
  5  6  1  0  0  0
  5  7  1  0  0  0
  7  8  2  0  0  0
  8  9  1  0  0  0
  9 10  2  0  0  0
  9 11  1  0  0  0
 11 12  1  0  0  0
 11 18  1  0  0  0
 12 13  1  0  0  0
 13 14  2  0  0  0
 13 17  1  0  0  0
 14 15  1  0  0  0
 15 16  2  0  0  0
 16 17  1  0  0  0
 18 19  1  0  0  0
 19 20  2  0  0  0
 19 24  1  0  0  0
 20 21  1  0  0  0
 21 22  1  0  0  0
 21 23  1  0  0  0
 23 24  2  0  0  0
 23 27  1  0  0  0
 24 25  1  0  0  0
 25 26  1  0  0  0
 26 27  1  0  0  0
M  END
>  <CHROM.0>
-174.86949987,-168.27094553,-131.46199718,-63.05199377,-28.96671046,177.96536841
-36.48343193,-166.71534262

>  <CHROM.1>
176.43876801,-37.34644053,90.08856282,-140.49706370,0.32718958,-29.35404491
-21.60320999,21.25904348,-12.56998381,1.77811065,0.50769004,0.30203291

>  <Name>
F6503-4868

>  <RI>
3.64609e+07

>  <Rbt.Current_Directory>
/home/adria/Escritorio/rDock_CMTR_LC/2pxcA_model/inputs_sah

>  <Rbt.Executable>
rbdock ($Id: //depot/dev/client3/rdock/2013.1/src/exe/rbdock.cxx#4 $)

>  <Rbt.Library>
libRbt.so (2013.1, Build901 2013/11/27)

>  <Rbt.Parameter_File>
/home/adria/Escritorio/rDock_2013.1_src/data/scripts/dock.prm

>  <Rbt.Receptor>
sah_rdock.prm

>  <SCORE>
-210.923

>  <SCORE.INTER>
-8.03821

>  <SCORE.INTER.CONST>
1

>  <SCORE.INTER.POLAR>
-0.703613

>  <SCORE.INTER.REPUL>
0.00034398

>  <SCORE.INTER.ROT>
6

>  <SCORE.INTER.VDW>
-17.0476

>  <SCORE.INTER.norm>
-0.297711

>  <SCORE.INTRA>
-197.64

>  <SCORE.INTRA.DIHEDRAL>
-20.2244

>  <SCORE.INTRA.DIHEDRAL.0>
30.9545

>  <SCORE.INTRA.POLAR>
0

>  <SCORE.INTRA.POLAR.0>
0

>  <SCORE.INTRA.REPUL>
0

>  <SCORE.INTRA.REPUL.0>
0

>  <SCORE.INTRA.VDW>
-187.528

>  <SCORE.INTRA.VDW.0>
187.023

>  <SCORE.INTRA.norm>
-7.31999

>  <SCORE.RESTR>
0

>  <SCORE.RESTR.CAVITY>
0

>  <SCORE.RESTR.norm>
0

>  <SCORE.SYSTEM>
-5.24497

>  <SCORE.SYSTEM.CONST>
0

>  <SCORE.SYSTEM.DIHEDRAL>
9.37698

>  <SCORE.SYSTEM.POLAR>
-4.17491

>  <SCORE.SYSTEM.VDW>
4.26122

>  <SCORE.SYSTEM.norm>
-0.194258

>  <SCORE.heavy>
27

>  <SCORE.norm>
-7.81196

$$$$
F6503-4868
  rDOCK(R)          3D
libRbt.so/2013.1/901 2013/11/27
 27 30  0  0  0  0  0  0  0  0999 V2000
  -26.4000   22.3737   -9.9274 C   0  0  0  0  0  0
  -25.9407   23.6512  -10.3015 O   0  0  0  0  0  0
  -24.6511   23.6048  -10.6660 C   0  0  0  0  0  0
  -24.1270   24.8014  -10.9648 N   0  0  0  0  0  0
  -22.6467   24.7057  -10.7285 N   0  0  0  0  0  0
  -21.1500   26.0949  -10.8119 C   0  0  0  0  0  0
  -22.6935   23.3119  -10.1920 C   0  0  0  0  0  0
  -23.7481   22.5725  -10.5565 C   0  0  0  0  0  0
  -23.5321   21.1898  -10.2562 C   0  0  0  0  0  0
  -23.9288   20.7204   -9.1918 O   0  0  0  0  0  0
  -22.6065   20.5058  -11.1290 N   0  0  0  0  0  0
  -22.1731   19.2063  -10.6024 C   0  0  0  0  0  0
  -23.0346   18.1198  -11.1234 C   0  0  0  0  0  0
  -24.1728   17.5044  -10.6461 C   0  0  0  0  0  0
  -24.5027   16.5006  -11.5859 C   0  0  0  0  0  0
  -23.5629   16.5861  -12.5859 C   0  0  0  0  0  0
  -22.6688   17.5689  -12.3147 O   0  0  0  0  0  0
  -21.9423   20.9115  -12.4941 C   0  0  0  0  0  0
  -21.5608   19.9074  -13.6484 C   0  0  0  0  0  0
  -22.5626   19.5603  -14.5112 N   0  0  0  0  0  0
  -22.0375   19.2222  -15.7203 N   0  0  0  0  0  0
  -22.8384   19.0048  -16.8995 C   0  0  0  0  0  0
  -20.6982   19.1034  -15.7357 C   0  0  0  0  0  0
  -20.1838   19.3927  -14.0999 C   0  0  0  0  0  0
  -18.2898   20.1456  -14.0687 C   0  0  0  0  0  0
  -17.7799   20.3900  -16.0796 C   0  0  0  0  0  0
  -19.3947   19.5931  -17.1471 C   0  0  0  0  0  0
  1  2  1  0  0  0
  2  3  1  0  0  0
  3  4  2  0  0  0
  3  8  1  0  0  0
  4  5  1  0  0  0
  5  6  1  0  0  0
  5  7  1  0  0  0
  7  8  2  0  0  0
  8  9  1  0  0  0
  9 10  2  0  0  0
  9 11  1  0  0  0
 11 12  1  0  0  0
 11 18  1  0  0  0
 12 13  1  0  0  0
 13 14  2  0  0  0
 13 17  1  0  0  0
 14 15  1  0  0  0
 15 16  2  0  0  0
 16 17  1  0  0  0
 18 19  1  0  0  0
 19 20  2  0  0  0
 19 24  1  0  0  0
 20 21  1  0  0  0
 21 22  1  0  0  0
 21 23  1  0  0  0
 23 24  2  0  0  0
 23 27  1  0  0  0
 24 25  1  0  0  0
 25 26  1  0  0  0
 26 27  1  0  0  0
M  END
>  <CHROM.0>
-58.99796582,-73.18169360,-9.14871627,65.57709912,-29.43554883,-60.19934201
-38.94372125,-166.37495886

>  <CHROM.1>
-176.51551790,-53.56797220,93.29168548,-147.83768556,-92.91246050,83.48499480
-22.57214849,20.64264990,-12.35795156,2.28919051,0.78816091,0.30308332

>  <Name>
F6503-4868

>  <RI>
3.64609e+07

>  <Rbt.Current_Directory>
/home/adria/Escritorio/rDock_CMTR_LC/2pxcA_model/inputs_sah

>  <Rbt.Executable>
rbdock ($Id: //depot/dev/client3/rdock/2013.1/src/exe/rbdock.cxx#4 $)

>  <Rbt.Library>
libRbt.so (2013.1, Build901 2013/11/27)

>  <Rbt.Parameter_File>
/home/adria/Escritorio/rDock_2013.1_src/data/scripts/dock.prm

>  <Rbt.Receptor>
sah_rdock.prm

>  <SCORE>
-209.164

>  <SCORE.INTER>
-5.282

>  <SCORE.INTER.CONST>
1

>  <SCORE.INTER.POLAR>
0

>  <SCORE.INTER.REPUL>
0

>  <SCORE.INTER.ROT>
6

>  <SCORE.INTER.VDW>
-16.682

>  <SCORE.INTER.norm>
-0.19563

>  <SCORE.INTRA>
-196.517

>  <SCORE.INTRA.DIHEDRAL>
-17.8197

>  <SCORE.INTRA.DIHEDRAL.0>
30.9545

>  <SCORE.INTRA.POLAR>
0

>  <SCORE.INTRA.POLAR.0>
0

>  <SCORE.INTRA.REPUL>
0

>  <SCORE.INTRA.REPUL.0>
0

>  <SCORE.INTRA.VDW>
-187.607

>  <SCORE.INTRA.VDW.0>
187.023

>  <SCORE.INTRA.norm>
-7.27841

>  <SCORE.RESTR>
0

>  <SCORE.RESTR.CAVITY>
0

>  <SCORE.RESTR.norm>
0

>  <SCORE.SYSTEM>
-7.36512

>  <SCORE.SYSTEM.CONST>
0

>  <SCORE.SYSTEM.DIHEDRAL>
9.33902

>  <SCORE.SYSTEM.POLAR>
-4.56872

>  <SCORE.SYSTEM.REPUL>
0.0388584

>  <SCORE.SYSTEM.VDW>
3.30472

>  <SCORE.SYSTEM.norm>
-0.272782

>  <SCORE.heavy>
27

>  <SCORE.norm>
-7.74683

$$$$
F6503-4868
  rDOCK(R)          3D
libRbt.so/2013.1/901 2013/11/27
 27 30  0  0  0  0  0  0  0  0999 V2000
  -24.0373   24.6645  -13.2904 C   0  0  0  0  0  0
  -22.6878   25.0669  -13.2903 O   0  0  0  0  0  0
  -22.0290   24.5210  -12.2579 C   0  0  0  0  0  0
  -20.7245   24.8257  -12.2229 N   0  0  0  0  0  0
  -20.2850   24.7177  -10.7906 N   0  0  0  0  0  0
  -18.5134   25.1381   -9.8623 C   0  0  0  0  0  0
  -21.6504   24.4226  -10.2605 C   0  0  0  0  0  0
  -22.5245   23.9047  -11.1320 C   0  0  0  0  0  0
  -23.6694   23.3754  -10.4553 C   0  0  0  0  0  0
  -24.5416   24.1321  -10.0344 O   0  0  0  0  0  0
  -23.5735   21.9854  -10.0744 N   0  0  0  0  0  0
  -24.6094   21.5788   -9.1177 C   0  0  0  0  0  0
  -25.5403   20.6086   -9.7392 C   0  0  0  0  0  0
  -26.7922   20.7288  -10.3051 C   0  0  0  0  0  0
  -27.1811   19.4233  -10.6846 C   0  0  0  0  0  0
  -26.1335   18.5976  -10.3511 C   0  0  0  0  0  0
  -25.1312   19.3096   -9.7788 O   0  0  0  0  0  0
  -22.5475   20.8546  -10.4459 C   0  0  0  0  0  0
  -21.7492   20.7674  -11.8028 C   0  0  0  0  0  0
  -20.3996   20.9722  -11.7310 N   0  0  0  0  0  0
  -19.7760   20.3180  -12.7485 N   0  0  0  0  0  0
  -18.3445   20.1686  -12.8354 C   0  0  0  0  0  0
  -20.6038   19.8141  -13.6807 C   0  0  0  0  0  0
  -22.2038   20.2885  -13.1916 C   0  0  0  0  0  0
  -23.5841   18.9491  -13.8665 C   0  0  0  0  0  0
  -22.4628   17.4438  -14.7831 C   0  0  0  0  0  0
  -20.4837   18.1214  -14.7060 C   0  0  0  0  0  0
  1  2  1  0  0  0
  2  3  1  0  0  0
  3  4  2  0  0  0
  3  8  1  0  0  0
  4  5  1  0  0  0
  5  6  1  0  0  0
  5  7  1  0  0  0
  7  8  2  0  0  0
  8  9  1  0  0  0
  9 10  2  0  0  0
  9 11  1  0  0  0
 11 12  1  0  0  0
 11 18  1  0  0  0
 12 13  1  0  0  0
 13 14  2  0  0  0
 13 17  1  0  0  0
 14 15  1  0  0  0
 15 16  2  0  0  0
 16 17  1  0  0  0
 18 19  1  0  0  0
 19 20  2  0  0  0
 19 24  1  0  0  0
 20 21  1  0  0  0
 21 22  1  0  0  0
 21 23  1  0  0  0
 23 24  2  0  0  0
 23 27  1  0  0  0
 24 25  1  0  0  0
 25 26  1  0  0  0
 26 27  1  0  0  0
M  END
>  <CHROM.0>
178.72916942,-168.43154158,-47.24219963,-61.07657174,34.89681305,58.27030021
-36.36443651,-160.60695077

>  <CHROM.1>
177.81688000,-69.79635535,113.26596735,-29.56258162,-99.12427205,111.47076509
-22.63427379,21.68800833,-11.61059033,0.70601016,0.43377129,0.37643706

>  <Name>
F6503-4868

>  <RI>
3.64609e+07

>  <Rbt.Current_Directory>
/home/adria/Escritorio/rDock_CMTR_LC/2pxcA_model/inputs_sah

>  <Rbt.Executable>
rbdock ($Id: //depot/dev/client3/rdock/2013.1/src/exe/rbdock.cxx#4 $)

>  <Rbt.Library>
libRbt.so (2013.1, Build901 2013/11/27)

>  <Rbt.Parameter_File>
/home/adria/Escritorio/rDock_2013.1_src/data/scripts/dock.prm

>  <Rbt.Receptor>
sah_rdock.prm

>  <SCORE>
-196.082

>  <SCORE.INTER>
-6.8586

>  <SCORE.INTER.CONST>
1

>  <SCORE.INTER.POLAR>
-0.894427

>  <SCORE.INTER.REPUL>
0.0211823

>  <SCORE.INTER.ROT>
6

>  <SCORE.INTER.VDW>
-15.3235

>  <SCORE.INTER.norm>
-0.254022

>  <SCORE.INTRA>
-195.465

>  <SCORE.INTRA.DIHEDRAL>
-14.8068

>  <SCORE.INTRA.DIHEDRAL.0>
30.9545

>  <SCORE.INTRA.POLAR>
0

>  <SCORE.INTRA.POLAR.0>
0

>  <SCORE.INTRA.REPUL>
0

>  <SCORE.INTRA.REPUL.0>
0

>  <SCORE.INTRA.VDW>
-188.061

>  <SCORE.INTRA.VDW.0>
187.023

>  <SCORE.INTRA.norm>
-7.23943

>  <SCORE.RESTR>
0.141543

>  <SCORE.RESTR.CAVITY>
0.141543

>  <SCORE.RESTR.norm>
0.00524233

>  <SCORE.SYSTEM>
6.10003

>  <SCORE.SYSTEM.CONST>
0

>  <SCORE.SYSTEM.DIHEDRAL>
5.47599

>  <SCORE.SYSTEM.POLAR>
-3.37657

>  <SCORE.SYSTEM.VDW>
14.8424

>  <SCORE.SYSTEM.norm>
0.225927

>  <SCORE.heavy>
27

>  <SCORE.norm>
-7.26228

$$$$
F6503-4868
  rDOCK(R)          3D
libRbt.so/2013.1/901 2013/11/27
 27 30  0  0  0  0  0  0  0  0999 V2000
  -23.0014   16.7551  -13.6490 C   0  0  0  0  0  0
  -23.8234   17.3143  -12.6517 O   0  0  0  0  0  0
  -23.2131   18.3504  -12.0585 C   0  0  0  0  0  0
  -23.9548   18.9534  -11.1193 N   0  0  0  0  0  0
  -23.0030   19.6057  -10.1575 N   0  0  0  0  0  0
  -23.2968   20.6005   -8.3965 C   0  0  0  0  0  0
  -21.7720   19.0730  -10.8159 C   0  0  0  0  0  0
  -21.8912   18.7296  -12.1041 C   0  0  0  0  0  0
  -20.6057   18.5414  -12.7048 C   0  0  0  0  0  0
  -20.0176   17.4694  -12.5802 O   0  0  0  0  0  0
  -19.9694   19.7436  -13.1908 N   0  0  0  0  0  0
  -18.5464   19.5571  -13.4975 C   0  0  0  0  0  0
  -18.3168   19.6152  -14.9596 C   0  0  0  0  0  0
  -19.1496   19.8173  -16.0402 C   0  0  0  0  0  0
  -18.3345   19.7165  -17.1913 C   0  0  0  0  0  0
  -17.0566   19.4869  -16.7389 C   0  0  0  0  0  0
  -17.0360   19.4267  -15.3843 O   0  0  0  0  0  0
  -20.4956   21.2097  -13.3986 C   0  0  0  0  0  0
  -20.8802   22.2058  -12.2385 C   0  0  0  0  0  0
  -19.8592   22.6295  -11.4344 N   0  0  0  0  0  0
  -20.1552   23.8515  -10.9134 N   0  0  0  0  0  0
  -19.2020   24.6572  -10.1913 C   0  0  0  0  0  0
  -21.4193   24.2585  -11.1235 C   0  0  0  0  0  0
  -22.1970   22.9529  -11.9692 C   0  0  0  0  0  0
  -23.7108   23.6591  -13.1373 C   0  0  0  0  0  0
  -23.6179   25.7359  -12.9329 C   0  0  0  0  0  0
  -22.1242   26.0719  -11.5052 C   0  0  0  0  0  0
  1  2  1  0  0  0
  2  3  1  0  0  0
  3  4  2  0  0  0
  3  8  1  0  0  0
  4  5  1  0  0  0
  5  6  1  0  0  0
  5  7  1  0  0  0
  7  8  2  0  0  0
  8  9  1  0  0  0
  9 10  2  0  0  0
  9 11  1  0  0  0
 11 12  1  0  0  0
 11 18  1  0  0  0
 12 13  1  0  0  0
 13 14  2  0  0  0
 13 17  1  0  0  0
 14 15  1  0  0  0
 15 16  2  0  0  0
 16 17  1  0  0  0
 18 19  1  0  0  0
 19 20  2  0  0  0
 19 24  1  0  0  0
 20 21  1  0  0  0
 21 22  1  0  0  0
 21 23  1  0  0  0
 23 24  2  0  0  0
 23 27  1  0  0  0
 24 25  1  0  0  0
 25 26  1  0  0  0
 26 27  1  0  0  0
M  END
>  <CHROM.0>
169.15846494,-73.93042963,-7.64498741,-61.43462668,-30.96786999,-176.66062616
-157.19075318,-161.48682281

>  <CHROM.1>
178.38338661,-63.93383646,110.05568143,69.13075026,0.80629831,66.27745592
-20.99472654,20.71305042,-12.64909108,0.97839473,-0.69504015,-2.90837443

>  <Name>
F6503-4868

>  <RI>
3.64609e+07

>  <Rbt.Current_Directory>
/home/adria/Escritorio/rDock_CMTR_LC/2pxcA_model/inputs_sah

>  <Rbt.Executable>
rbdock ($Id: //depot/dev/client3/rdock/2013.1/src/exe/rbdock.cxx#4 $)

>  <Rbt.Library>
libRbt.so (2013.1, Build901 2013/11/27)

>  <Rbt.Parameter_File>
/home/adria/Escritorio/rDock_2013.1_src/data/scripts/dock.prm

>  <Rbt.Receptor>
sah_rdock.prm

>  <SCORE>
-217.302

>  <SCORE.INTER>
-14.3266

>  <SCORE.INTER.CONST>
1

>  <SCORE.INTER.POLAR>
-0.824621

>  <SCORE.INTER.REPUL>
0.120837

>  <SCORE.INTER.ROT>
6

>  <SCORE.INTER.VDW>
-23.527

>  <SCORE.INTER.norm>
-0.530613

>  <SCORE.INTRA>
-196.308

>  <SCORE.INTRA.DIHEDRAL>
-17.6711

>  <SCORE.INTRA.DIHEDRAL.0>
30.9545

>  <SCORE.INTRA.POLAR>
0

>  <SCORE.INTRA.POLAR.0>
0

>  <SCORE.INTRA.REPUL>
0

>  <SCORE.INTRA.REPUL.0>
0

>  <SCORE.INTRA.VDW>
-187.473

>  <SCORE.INTRA.VDW.0>
187.023

>  <SCORE.INTRA.norm>
-7.27068

>  <SCORE.RESTR>
0

>  <SCORE.RESTR.CAVITY>
0

>  <SCORE.RESTR.norm>
0

>  <SCORE.SYSTEM>
-6.66665

>  <SCORE.SYSTEM.CONST>
0

>  <SCORE.SYSTEM.DIHEDRAL>
10.0159

>  <SCORE.SYSTEM.POLAR>
-4.63833

>  <SCORE.SYSTEM.REPUL>
0.0401546

>  <SCORE.SYSTEM.VDW>
3.89496

>  <SCORE.SYSTEM.norm>
-0.246913

>  <SCORE.heavy>
27

>  <SCORE.norm>
-8.04821

$$$$
