F1362-0047
  rDOCK(R)          3D
libRbt.so/2013.1/901 2013/11/27
 27 30  0  0  0  0  0  0  0  0999 V2000
  -18.9380   17.2916  -13.9731 O   0  0  0  0  0  0
  -18.1524   17.7678  -15.0061 C   0  0  0  0  0  0
  -18.2087   19.0386  -15.4363 C   0  0  0  0  0  0
  -19.1262   20.0356  -14.8229 C   0  0  0  0  0  0
  -20.1501   19.7056  -14.0947 N   0  0  0  0  0  0
  -20.8650   20.7550  -13.5934 C   0  0  0  0  0  0
  -22.0255   20.7827  -12.8379 C   0  0  0  0  0  0
  -22.7192   19.5878  -12.4646 C   0  0  0  0  0  0
  -23.2912   18.6162  -12.1859 N   0  0  0  0  0  0
  -22.4367   22.1083  -12.4825 C   0  0  0  0  0  0
  -21.5388   23.0485  -12.9470 C   0  0  0  0  0  0
  -21.6532   24.5292  -12.7397 C   0  0  0  0  0  0
  -22.6626   24.8382  -11.6217 C   0  0  0  0  0  0
  -23.9386   23.9968  -11.7618 C   0  0  0  0  0  0
  -23.6392   22.4928  -11.6679 C   0  0  0  0  0  0
  -20.2609   22.3543  -13.8262 S   0  0  0  0  0  0
  -17.3096   19.4695  -16.5096 C   0  0  0  0  0  0
  -17.2907   20.6345  -16.8892 O   0  0  0  0  0  0
  -16.4687   18.5529  -17.0180 O   0  0  0  0  0  0
  -16.7283   17.1595  -16.8077 C   0  0  0  0  0  0
  -17.6233   16.6393  -17.9481 C   0  0  0  0  0  0
  -17.7433   15.1157  -17.9477 C   0  0  0  0  0  0
  -16.3733   14.4456  -17.9925 C   0  0  0  0  0  0
  -15.4677   14.9378  -16.8682 C   0  0  0  0  0  0
  -15.3579   16.4614  -16.8656 C   0  0  0  0  0  0
  -17.3099   16.8340  -15.5480 O   0  0  0  0  0  0
  -19.5248   18.0118  -13.6575 H   0  0  0  0  0  0
  1  2  1  0  0  0
  1 27  1  0  0  0
  2  3  2  0  0  0
  2 26  1  0  0  0
  3  4  1  0  0  0
  3 17  1  0  0  0
  4  5  2  0  0  0
  5  6  1  0  0  0
  6  7  2  0  0  0
  6 16  1  0  0  0
  7  8  1  0  0  0
  7 10  1  0  0  0
  8  9  3  0  0  0
 10 11  2  0  0  0
 10 15  1  0  0  0
 11 12  1  0  0  0
 11 16  1  0  0  0
 12 13  1  0  0  0
 13 14  1  0  0  0
 14 15  1  0  0  0
 17 18  2  0  0  0
 17 19  1  0  0  0
 19 20  1  0  0  0
 20 21  1  0  0  0
 20 25  1  0  0  0
 20 26  1  0  0  0
 21 22  1  0  0  0
 22 23  1  0  0  0
 23 24  1  0  0  0
 24 25  1  0  0  0
M  END
>  <CHROM.0>
-178.46570733,-73.43858112,-165.48159812,-61.34151183,-31.54528254,-56.86321132
-156.37179707,-162.62353727

>  <CHROM.1>
1.63846659,-18.03253583,176.98229351,-19.48156979,19.59260511,-14.68909399
0.74894766,-0.63494035,-3.08221763

>  <Name>
F1362-0047

>  <RI>
2.51232e+07

>  <Rbt.Current_Directory>
/home/adria/Escritorio/rDock_CMTR_LC/2pxcA_model/inputs_sah

>  <Rbt.Executable>
rbdock ($Id: //depot/dev/client3/rdock/2013.1/src/exe/rbdock.cxx#4 $)

>  <Rbt.Library>
libRbt.so (2013.1, Build901 2013/11/27)

>  <Rbt.Parameter_File>
/home/adria/Escritorio/rDock_2013.1_src/data/scripts/dock.prm

>  <Rbt.Receptor>
sah_rdock.prm

>  <SCORE>
-39.8696

>  <SCORE.INTER>
-14.386

>  <SCORE.INTER.CONST>
1

>  <SCORE.INTER.POLAR>
-1.25593

>  <SCORE.INTER.REPUL>
0.0467205

>  <SCORE.INTER.ROT>
2

>  <SCORE.INTER.VDW>
-17.7494

>  <SCORE.INTER.norm>
-0.553306

>  <SCORE.INTRA>
-18.4076

>  <SCORE.INTRA.DIHEDRAL>
-42.0437

>  <SCORE.INTRA.DIHEDRAL.0>
43.3921

>  <SCORE.INTRA.POLAR>
0.0260682

>  <SCORE.INTRA.POLAR.0>
-0.879016

>  <SCORE.INTRA.REPUL>
0

>  <SCORE.INTRA.REPUL.0>
0

>  <SCORE.INTRA.VDW>
2.52564

>  <SCORE.INTRA.VDW.0>
-0.206451

>  <SCORE.INTRA.norm>
-0.707983

>  <SCORE.RESTR>
0

>  <SCORE.RESTR.CAVITY>
0

>  <SCORE.RESTR.norm>
0

>  <SCORE.SYSTEM>
-7.07612

>  <SCORE.SYSTEM.CONST>
0

>  <SCORE.SYSTEM.DIHEDRAL>
6.34319

>  <SCORE.SYSTEM.POLAR>
-4.01999

>  <SCORE.SYSTEM.REPUL>
0.0393093

>  <SCORE.SYSTEM.VDW>
3.22371

>  <SCORE.SYSTEM.norm>
-0.272158

>  <SCORE.heavy>
26

>  <SCORE.norm>
-1.53345

$$$$
F1362-0047
  rDOCK(R)          3D
libRbt.so/2013.1/901 2013/11/27
 27 30  0  0  0  0  0  0  0  0999 V2000
  -18.8265   17.9067  -13.2472 O   0  0  0  0  0  0
  -18.4696   18.9410  -14.0922 C   0  0  0  0  0  0
  -19.0307   20.1593  -14.0275 C   0  0  0  0  0  0
  -20.0833   20.4875  -13.0294 C   0  0  0  0  0  0
  -20.6722   21.6439  -12.9717 N   0  0  0  0  0  0
  -21.6315   21.7564  -12.0070 C   0  0  0  0  0  0
  -22.0819   20.8452  -11.0660 C   0  0  0  0  0  0
  -21.5651   19.5129  -10.9886 C   0  0  0  0  0  0
  -21.1595   18.4253  -10.9469 N   0  0  0  0  0  0
  -23.0941   21.3779  -10.2033 C   0  0  0  0  0  0
  -23.3470   22.7038  -10.4932 C   0  0  0  0  0  0
  -24.3357   23.5723   -9.7743 C   0  0  0  0  0  0
  -24.7393   22.9318   -8.4360 C   0  0  0  0  0  0
  -25.0264   21.4318   -8.5893 C   0  0  0  0  0  0
  -23.7883   20.6645   -9.0778 C   0  0  0  0  0  0
  -22.4221   23.2758  -11.7990 S   0  0  0  0  0  0
  -18.5622   21.2099  -14.9346 C   0  0  0  0  0  0
  -19.0086   22.3492  -14.8669 O   0  0  0  0  0  0
  -17.5856   20.8900  -15.8005 O   0  0  0  0  0  0
  -17.3194   19.5124  -16.0907 C   0  0  0  0  0  0
  -18.2015   19.0703  -17.2733 C   0  0  0  0  0  0
  -17.8058   17.6974  -17.8159 C   0  0  0  0  0  0
  -16.3299   17.6509  -18.2004 C   0  0  0  0  0  0
  -15.4321   18.0776  -17.0436 C   0  0  0  0  0  0
  -15.8365   19.4456  -16.4975 C   0  0  0  0  0  0
  -17.4926   18.6170  -14.9954 O   0  0  0  0  0  0
  -19.5154   18.2236  -12.6247 H   0  0  0  0  0  0
  1  2  1  0  0  0
  1 27  1  0  0  0
  2  3  2  0  0  0
  2 26  1  0  0  0
  3  4  1  0  0  0
  3 17  1  0  0  0
  4  5  2  0  0  0
  5  6  1  0  0  0
  6  7  2  0  0  0
  6 16  1  0  0  0
  7  8  1  0  0  0
  7 10  1  0  0  0
  8  9  3  0  0  0
 10 11  2  0  0  0
 10 15  1  0  0  0
 11 12  1  0  0  0
 11 16  1  0  0  0
 12 13  1  0  0  0
 13 14  1  0  0  0
 14 15  1  0  0  0
 17 18  2  0  0  0
 17 19  1  0  0  0
 19 20  1  0  0  0
 20 21  1  0  0  0
 20 25  1  0  0  0
 20 26  1  0  0  0
 21 22  1  0  0  0
 22 23  1  0  0  0
 23 24  1  0  0  0
 24 25  1  0  0  0
M  END
>  <CHROM.0>
-179.65801971,-74.03221580,111.78450984,63.20340576,-30.52011402,59.41892579
-70.38120401,-162.59239713

>  <CHROM.1>
-0.78055748,-177.78411624,0.50293707,-20.19540008,20.50115780,-13.23031176
0.08254031,-0.84366051,2.79384137

>  <Name>
F1362-0047

>  <RI>
2.51232e+07

>  <Rbt.Current_Directory>
/home/adria/Escritorio/rDock_CMTR_LC/2pxcA_model/inputs_sah

>  <Rbt.Executable>
rbdock ($Id: //depot/dev/client3/rdock/2013.1/src/exe/rbdock.cxx#4 $)

>  <Rbt.Library>
libRbt.so (2013.1, Build901 2013/11/27)

>  <Rbt.Parameter_File>
/home/adria/Escritorio/rDock_2013.1_src/data/scripts/dock.prm

>  <Rbt.Receptor>
sah_rdock.prm

>  <SCORE>
-42.2231

>  <SCORE.INTER>
-18.6489

>  <SCORE.INTER.CONST>
1

>  <SCORE.INTER.POLAR>
-1.46938

>  <SCORE.INTER.REPUL>
0.232453

>  <SCORE.INTER.ROT>
2

>  <SCORE.INTER.VDW>
-22.2153

>  <SCORE.INTER.norm>
-0.717267

>  <SCORE.INTRA>
-18.0714

>  <SCORE.INTRA.DIHEDRAL>
-43.2859

>  <SCORE.INTRA.DIHEDRAL.0>
43.3921

>  <SCORE.INTRA.POLAR>
0.503419

>  <SCORE.INTRA.POLAR.0>
-0.879016

>  <SCORE.INTRA.REPUL>
0

>  <SCORE.INTRA.REPUL.0>
0

>  <SCORE.INTRA.VDW>
1.85991

>  <SCORE.INTRA.VDW.0>
-0.206451

>  <SCORE.INTRA.norm>
-0.695055

>  <SCORE.RESTR>
0

>  <SCORE.RESTR.CAVITY>
0

>  <SCORE.RESTR.norm>
0

>  <SCORE.SYSTEM>
-5.5027

>  <SCORE.SYSTEM.CONST>
0

>  <SCORE.SYSTEM.DIHEDRAL>
8.60894

>  <SCORE.SYSTEM.POLAR>
-3.94367

>  <SCORE.SYSTEM.REPUL>
0.0403265

>  <SCORE.SYSTEM.VDW>
3.39967

>  <SCORE.SYSTEM.norm>
-0.211642

>  <SCORE.heavy>
26

>  <SCORE.norm>
-1.62396

$$$$
F1362-0047
  rDOCK(R)          3D
libRbt.so/2013.1/901 2013/11/27
 27 30  0  0  0  0  0  0  0  0999 V2000
  -19.3773   22.4684  -15.1390 O   0  0  0  0  0  0
  -20.0236   22.1627  -13.9558 C   0  0  0  0  0  0
  -20.1792   20.9033  -13.5165 C   0  0  0  0  0  0
  -19.6581   19.7361  -14.2768 C   0  0  0  0  0  0
  -19.0460   19.8467  -15.4173 N   0  0  0  0  0  0
  -18.6144   18.6698  -15.9579 C   0  0  0  0  0  0
  -18.7814   17.3620  -15.5332 C   0  0  0  0  0  0
  -19.4807   17.0369  -14.3277 C   0  0  0  0  0  0
  -20.0278   16.7808  -13.3356 N   0  0  0  0  0  0
  -18.1914   16.4014  -16.4173 C   0  0  0  0  0  0
  -17.6305   17.0176  -17.5181 C   0  0  0  0  0  0
  -16.9441   16.3103  -18.6482 C   0  0  0  0  0  0
  -17.2873   14.8115  -18.6308 C   0  0  0  0  0  0
  -17.2020   14.2270  -17.2141 C   0  0  0  0  0  0
  -18.1950   14.9072  -16.2594 C   0  0  0  0  0  0
  -17.7718   18.7102  -17.4630 S   0  0  0  0  0  0
  -20.8404   20.6727  -12.2297 C   0  0  0  0  0  0
  -20.9493   19.5427  -11.7682 O   0  0  0  0  0  0
  -21.2681   21.7511  -11.5515 O   0  0  0  0  0  0
  -21.4333   22.9989  -12.2361 C   0  0  0  0  0  0
  -22.8624   23.0721  -12.8058 C   0  0  0  0  0  0
  -23.2115   24.4647  -13.3300 C   0  0  0  0  0  0
  -23.0042   25.5340  -12.2615 C   0  0  0  0  0  0
  -21.5930   25.4887  -11.6847 C   0  0  0  0  0  0
  -21.2440   24.0933  -11.1706 C   0  0  0  0  0  0
  -20.4857   23.2541  -13.2697 O   0  0  0  0  0  0
  -19.0900   21.6363  -15.5722 H   0  0  0  0  0  0
  1  2  1  0  0  0
  1 27  1  0  0  0
  2  3  2  0  0  0
  2 26  1  0  0  0
  3  4  1  0  0  0
  3 17  1  0  0  0
  4  5  2  0  0  0
  5  6  1  0  0  0
  6  7  2  0  0  0
  6 16  1  0  0  0
  7  8  1  0  0  0
  7 10  1  0  0  0
  8  9  3  0  0  0
 10 11  2  0  0  0
 10 15  1  0  0  0
 11 12  1  0  0  0
 11 16  1  0  0  0
 12 13  1  0  0  0
 13 14  1  0  0  0
 14 15  1  0  0  0
 17 18  2  0  0  0
 17 19  1  0  0  0
 19 20  1  0  0  0
 20 21  1  0  0  0
 20 25  1  0  0  0
 20 26  1  0  0  0
 21 22  1  0  0  0
 22 23  1  0  0  0
 23 24  1  0  0  0
 24 25  1  0  0  0
M  END
>  <CHROM.0>
-59.45707975,-168.00176441,75.41807785,64.66149629,168.69873124,-176.37826033
-156.67933826,-161.40389519

>  <CHROM.1>
1.00963326,-1.34312785,4.05341830,-19.75084550,19.94982444,-14.56656619,-2.53993821
-1.05207826,2.80869731

>  <Name>
F1362-0047

>  <RI>
2.51232e+07

>  <Rbt.Current_Directory>
/home/adria/Escritorio/rDock_CMTR_LC/2pxcA_model/inputs_sah

>  <Rbt.Executable>
rbdock ($Id: //depot/dev/client3/rdock/2013.1/src/exe/rbdock.cxx#4 $)

>  <Rbt.Library>
libRbt.so (2013.1, Build901 2013/11/27)

>  <Rbt.Parameter_File>
/home/adria/Escritorio/rDock_2013.1_src/data/scripts/dock.prm

>  <Rbt.Receptor>
sah_rdock.prm

>  <SCORE>
-41.0197

>  <SCORE.INTER>
-19.3292

>  <SCORE.INTER.CONST>
1

>  <SCORE.INTER.POLAR>
-0.819334

>  <SCORE.INTER.REPUL>
0

>  <SCORE.INTER.ROT>
2

>  <SCORE.INTER.VDW>
-23.9435

>  <SCORE.INTER.norm>
-0.743431

>  <SCORE.INTRA>
-19.8936

>  <SCORE.INTRA.DIHEDRAL>
-43.2582

>  <SCORE.INTRA.DIHEDRAL.0>
43.3921

>  <SCORE.INTRA.POLAR>
-0.0102341

>  <SCORE.INTRA.POLAR.0>
-0.879016

>  <SCORE.INTRA.REPUL>
0

>  <SCORE.INTRA.REPUL.0>
0

>  <SCORE.INTRA.VDW>
1.77027

>  <SCORE.INTRA.VDW.0>
-0.206451

>  <SCORE.INTRA.norm>
-0.76514

>  <SCORE.RESTR>
0

>  <SCORE.RESTR.CAVITY>
0

>  <SCORE.RESTR.norm>
0

>  <SCORE.SYSTEM>
-1.79689

>  <SCORE.SYSTEM.CONST>
0

>  <SCORE.SYSTEM.DIHEDRAL>
3.66699

>  <SCORE.SYSTEM.POLAR>
-3.72962

>  <SCORE.SYSTEM.VDW>
9.05034

>  <SCORE.SYSTEM.norm>
-0.0691111

>  <SCORE.heavy>
26

>  <SCORE.norm>
-1.57768

$$$$
F1362-0047
  rDOCK(R)          3D
libRbt.so/2013.1/901 2013/11/27
 27 30  0  0  0  0  0  0  0  0999 V2000
  -19.0561   17.9864  -13.2666 O   0  0  0  0  0  0
  -18.6109   18.9894  -14.1075 C   0  0  0  0  0  0
  -19.0919   20.2423  -14.0632 C   0  0  0  0  0  0
  -20.1451   20.6457  -13.0936 C   0  0  0  0  0  0
  -20.7521   21.7933  -13.1402 N   0  0  0  0  0  0
  -21.7087   21.9802  -12.1844 C   0  0  0  0  0  0
  -22.5985   23.0226  -11.9841 C   0  0  0  0  0  0
  -22.6178   24.1791  -12.8269 C   0  0  0  0  0  0
  -22.6120   25.1262  -13.4992 N   0  0  0  0  0  0
  -23.4728   22.8125  -10.8688 C   0  0  0  0  0  0
  -23.2443   21.5836  -10.2826 C   0  0  0  0  0  0
  -23.9916   21.0362   -9.1034 C   0  0  0  0  0  0
  -25.2920   21.8253   -8.8787 C   0  0  0  0  0  0
  -25.0624   23.3390   -8.9879 C   0  0  0  0  0  0
  -24.5533   23.7361  -10.3820 C   0  0  0  0  0  0
  -21.9798   20.7280  -11.0288 S   0  0  0  0  0  0
  -18.5329   21.2538  -14.9635 C   0  0  0  0  0  0
  -18.9047   22.4204  -14.9128 O   0  0  0  0  0  0
  -17.5582   20.8646  -15.8028 O   0  0  0  0  0  0
  -17.3762   19.4705  -16.0792 C   0  0  0  0  0  0
  -18.2558   19.0795  -17.2815 C   0  0  0  0  0  0
  -17.9380   17.6799  -17.8070 C   0  0  0  0  0  0
  -16.4593   17.5339  -18.1538 C   0  0  0  0  0  0
  -15.5644   17.9084  -16.9769 C   0  0  0  0  0  0
  -15.8913   19.3037  -16.4481 C   0  0  0  0  0  0
  -17.6352   18.5959  -14.9841 O   0  0  0  0  0  0
  -18.7098   17.1247  -13.5830 H   0  0  0  0  0  0
  1  2  1  0  0  0
  1 27  1  0  0  0
  2  3  2  0  0  0
  2 26  1  0  0  0
  3  4  1  0  0  0
  3 17  1  0  0  0
  4  5  2  0  0  0
  5  6  1  0  0  0
  6  7  2  0  0  0
  6 16  1  0  0  0
  7  8  1  0  0  0
  7 10  1  0  0  0
  8  9  3  0  0  0
 10 11  2  0  0  0
 10 15  1  0  0  0
 11 12  1  0  0  0
 11 16  1  0  0  0
 12 13  1  0  0  0
 13 14  1  0  0  0
 14 15  1  0  0  0
 17 18  2  0  0  0
 17 19  1  0  0  0
 19 20  1  0  0  0
 20 21  1  0  0  0
 20 25  1  0  0  0
 20 26  1  0  0  0
 21 22  1  0  0  0
 22 23  1  0  0  0
 23 24  1  0  0  0
 24 25  1  0  0  0
M  END
>  <CHROM.0>
-176.64864921,67.70916259,-168.07294973,63.75767472,-30.01734743,-59.26420337
83.54120419,-159.91221488

>  <CHROM.1>
168.81943152,-170.72372307,-175.38428790,-20.35166385,20.82276118,-13.43446012
0.07534640,-0.82444400,2.68510954

>  <Name>
F1362-0047

>  <RI>
2.51232e+07

>  <Rbt.Current_Directory>
/home/adria/Escritorio/rDock_CMTR_LC/2pxcA_model/inputs_sah

>  <Rbt.Executable>
rbdock ($Id: //depot/dev/client3/rdock/2013.1/src/exe/rbdock.cxx#4 $)

>  <Rbt.Library>
libRbt.so (2013.1, Build901 2013/11/27)

>  <Rbt.Parameter_File>
/home/adria/Escritorio/rDock_2013.1_src/data/scripts/dock.prm

>  <Rbt.Receptor>
sah_rdock.prm

>  <SCORE>
-41.867

>  <SCORE.INTER>
-19.2839

>  <SCORE.INTER.CONST>
1

>  <SCORE.INTER.POLAR>
-1.57861

>  <SCORE.INTER.REPUL>
0

>  <SCORE.INTER.ROT>
2

>  <SCORE.INTER.VDW>
-21.3166

>  <SCORE.INTER.norm>
-0.741687

>  <SCORE.INTRA>
-16.0277

>  <SCORE.INTRA.DIHEDRAL>
-41.9632

>  <SCORE.INTRA.DIHEDRAL.0>
43.3921

>  <SCORE.INTRA.POLAR>
0.879016

>  <SCORE.INTRA.POLAR.0>
-0.879016

>  <SCORE.INTRA.REPUL>
0

>  <SCORE.INTRA.REPUL.0>
0

>  <SCORE.INTRA.VDW>
1.9653

>  <SCORE.INTRA.VDW.0>
-0.206451

>  <SCORE.INTRA.norm>
-0.616449

>  <SCORE.RESTR>
0

>  <SCORE.RESTR.CAVITY>
0

>  <SCORE.RESTR.norm>
0

>  <SCORE.SYSTEM>
-6.55545

>  <SCORE.SYSTEM.CONST>
0

>  <SCORE.SYSTEM.DIHEDRAL>
6.1211

>  <SCORE.SYSTEM.POLAR>
-3.61459

>  <SCORE.SYSTEM.VDW>
2.67361

>  <SCORE.SYSTEM.norm>
-0.252133

>  <SCORE.heavy>
26

>  <SCORE.norm>
-1.61027

$$$$
F1362-0047
  rDOCK(R)          3D
libRbt.so/2013.1/901 2013/11/27
 27 30  0  0  0  0  0  0  0  0999 V2000
  -18.8991   22.6820  -15.0892 O   0  0  0  0  0  0
  -19.5792   22.1937  -13.9891 C   0  0  0  0  0  0
  -19.5905   20.8918  -13.6602 C   0  0  0  0  0  0
  -18.8613   19.8728  -14.4613 C   0  0  0  0  0  0
  -17.7998   20.1439  -15.1592 N   0  0  0  0  0  0
  -17.2489   19.0782  -15.8107 C   0  0  0  0  0  0
  -16.0696   18.9653  -16.5284 C   0  0  0  0  0  0
  -15.1901   20.0769  -16.7266 C   0  0  0  0  0  0
  -14.4929   20.9884  -16.9051 N   0  0  0  0  0  0
  -15.8391   17.6441  -17.0321 C   0  0  0  0  0  0
  -16.8399   16.7795  -16.6361 C   0  0  0  0  0  0
  -16.9043   15.3197  -16.9728 C   0  0  0  0  0  0
  -15.5361   14.8222  -17.4676 C   0  0  0  0  0  0
  -14.9066   15.7991  -18.4702 C   0  0  0  0  0  0
  -14.6609   17.1785  -17.8399 C   0  0  0  0  0  0
  -18.0466   17.5509  -15.7212 S   0  0  0  0  0  0
  -20.3030   20.4668  -12.4527 C   0  0  0  0  0  0
  -20.2876   19.2970  -12.0881 O   0  0  0  0  0  0
  -20.9220   21.4175  -11.7324 O   0  0  0  0  0  0
  -21.2086   22.6868  -12.3321 C   0  0  0  0  0  0
  -22.5903   22.6200  -13.0093 C   0  0  0  0  0  0
  -23.0899   23.9943  -13.4538 C   0  0  0  0  0  0
  -23.1078   24.9860  -12.2944 C   0  0  0  0  0  0
  -21.7481   25.0774  -11.6094 C   0  0  0  0  0  0
  -21.2475   23.7011  -11.1752 C   0  0  0  0  0  0
  -20.2345   23.1520  -13.2627 O   0  0  0  0  0  0
  -18.3956   21.9505  -15.5063 H   0  0  0  0  0  0
  1  2  1  0  0  0
  1 27  1  0  0  0
  2  3  2  0  0  0
  2 26  1  0  0  0
  3  4  1  0  0  0
  3 17  1  0  0  0
  4  5  2  0  0  0
  5  6  1  0  0  0
  6  7  2  0  0  0
  6 16  1  0  0  0
  7  8  1  0  0  0
  7 10  1  0  0  0
  8  9  3  0  0  0
 10 11  2  0  0  0
 10 15  1  0  0  0
 11 12  1  0  0  0
 11 16  1  0  0  0
 12 13  1  0  0  0
 13 14  1  0  0  0
 14 15  1  0  0  0
 17 18  2  0  0  0
 17 19  1  0  0  0
 19 20  1  0  0  0
 20 21  1  0  0  0
 20 25  1  0  0  0
 20 26  1  0  0  0
 21 22  1  0  0  0
 22 23  1  0  0  0
 23 24  1  0  0  0
 24 25  1  0  0  0
M  END
>  <CHROM.0>
179.51959529,-73.38571396,112.94507891,62.33317973,168.59330235,-58.67899666
-157.25562593,-162.26319035

>  <CHROM.1>
-4.71412251,27.61747027,-173.14077900,-18.69404680,20.20642365,-14.68944020
-2.40502099,-0.64762336,-3.08788611

>  <Name>
F1362-0047

>  <RI>
2.51232e+07

>  <Rbt.Current_Directory>
/home/adria/Escritorio/rDock_CMTR_LC/2pxcA_model/inputs_sah

>  <Rbt.Executable>
rbdock ($Id: //depot/dev/client3/rdock/2013.1/src/exe/rbdock.cxx#4 $)

>  <Rbt.Library>
libRbt.so (2013.1, Build901 2013/11/27)

>  <Rbt.Parameter_File>
/home/adria/Escritorio/rDock_2013.1_src/data/scripts/dock.prm

>  <Rbt.Receptor>
sah_rdock.prm

>  <SCORE>
-36.7844

>  <SCORE.INTER>
-17.1562

>  <SCORE.INTER.CONST>
1

>  <SCORE.INTER.POLAR>
0

>  <SCORE.INTER.REPUL>
0.0161248

>  <SCORE.INTER.ROT>
2

>  <SCORE.INTER.VDW>
-24.6369

>  <SCORE.INTER.norm>
-0.659855

>  <SCORE.INTRA>
-17.4004

>  <SCORE.INTRA.DIHEDRAL>
-40.1677

>  <SCORE.INTRA.DIHEDRAL.0>
43.3921

>  <SCORE.INTRA.POLAR>
0.0566288

>  <SCORE.INTRA.POLAR.0>
-0.879016

>  <SCORE.INTRA.REPUL>
0

>  <SCORE.INTRA.REPUL.0>
0

>  <SCORE.INTRA.VDW>
2.49088

>  <SCORE.INTRA.VDW.0>
-0.206451

>  <SCORE.INTRA.norm>
-0.669248

>  <SCORE.RESTR>
0

>  <SCORE.RESTR.CAVITY>
0

>  <SCORE.RESTR.norm>
0

>  <SCORE.SYSTEM>
-2.22775

>  <SCORE.SYSTEM.CONST>
0

>  <SCORE.SYSTEM.DIHEDRAL>
6.5609

>  <SCORE.SYSTEM.POLAR>
-4.54065

>  <SCORE.SYSTEM.REPUL>
0.039217

>  <SCORE.SYSTEM.VDW>
9.7339

>  <SCORE.SYSTEM.norm>
-0.0856828

>  <SCORE.heavy>
26

>  <SCORE.norm>
-1.41479

$$$$
F1362-0047
  rDOCK(R)          3D
libRbt.so/2013.1/901 2013/11/27
 27 30  0  0  0  0  0  0  0  0999 V2000
  -18.9779   17.9535  -13.2185 O   0  0  0  0  0  0
  -18.5066   18.8873  -14.1224 C   0  0  0  0  0  0
  -18.9301   20.1615  -14.1391 C   0  0  0  0  0  0
  -19.9432   20.6653  -13.1737 C   0  0  0  0  0  0
  -20.5018   19.9141  -12.2731 N   0  0  0  0  0  0
  -21.3901   20.5536  -11.4573 C   0  0  0  0  0  0
  -21.7836   21.8808  -11.4093 C   0  0  0  0  0  0
  -21.2327   22.8699  -12.2847 C   0  0  0  0  0  0
  -20.7639   23.6727  -12.9810 N   0  0  0  0  0  0
  -22.7789   22.1392  -10.4117 C   0  0  0  0  0  0
  -23.1436   20.9775   -9.7609 C   0  0  0  0  0  0
  -24.1706   20.8827   -8.6723 C   0  0  0  0  0  0
  -25.0428   22.1487   -8.6456 C   0  0  0  0  0  0
  -24.1964   23.4228   -8.7732 C   0  0  0  0  0  0
  -23.4243   23.4599  -10.1009 C   0  0  0  0  0  0
  -22.2763   19.6219  -10.3068 S   0  0  0  0  0  0
  -18.3460   21.0954  -15.1049 C   0  0  0  0  0  0
  -18.6642   22.2788  -15.1124 O   0  0  0  0  0  0
  -17.4079   20.6164  -15.9395 O   0  0  0  0  0  0
  -17.2943   19.2024  -16.1410 C   0  0  0  0  0  0
  -18.2162   18.7866  -17.3027 C   0  0  0  0  0  0
  -17.9725   17.3472  -17.7551 C   0  0  0  0  0  0
  -16.5096   17.1149  -18.1213 C   0  0  0  0  0  0
  -15.5738   17.5121  -16.9843 C   0  0  0  0  0  0
  -15.8266   18.9478  -16.5282 C   0  0  0  0  0  0
  -17.5685   18.4020  -14.9941 O   0  0  0  0  0  0
  -19.6684   18.3686  -12.6585 H   0  0  0  0  0  0
  1  2  1  0  0  0
  1 27  1  0  0  0
  2  3  2  0  0  0
  2 26  1  0  0  0
  3  4  1  0  0  0
  3 17  1  0  0  0
  4  5  2  0  0  0
  5  6  1  0  0  0
  6  7  2  0  0  0
  6 16  1  0  0  0
  7  8  1  0  0  0
  7 10  1  0  0  0
  8  9  3  0  0  0
 10 11  2  0  0  0
 10 15  1  0  0  0
 11 12  1  0  0  0
 11 16  1  0  0  0
 12 13  1  0  0  0
 13 14  1  0  0  0
 14 15  1  0  0  0
 17 18  2  0  0  0
 17 19  1  0  0  0
 19 20  1  0  0  0
 20 21  1  0  0  0
 20 25  1  0  0  0
 20 26  1  0  0  0
 21 22  1  0  0  0
 22 23  1  0  0  0
 23 24  1  0  0  0
 24 25  1  0  0  0
M  END
>  <CHROM.0>
-60.62086261,-75.16515290,-6.73941740,65.35094169,31.20758502,60.73858417
-37.03854032,-163.81733779

>  <CHROM.1>
2.55905089,-1.28188382,-1.30075064,-20.06853170,20.32529035,-13.20898729
0.23013990,-0.85942147,2.98621462

>  <Name>
F1362-0047

>  <RI>
2.51232e+07

>  <Rbt.Current_Directory>
/home/adria/Escritorio/rDock_CMTR_LC/2pxcA_model/inputs_sah

>  <Rbt.Executable>
rbdock ($Id: //depot/dev/client3/rdock/2013.1/src/exe/rbdock.cxx#4 $)

>  <Rbt.Library>
libRbt.so (2013.1, Build901 2013/11/27)

>  <Rbt.Parameter_File>
/home/adria/Escritorio/rDock_2013.1_src/data/scripts/dock.prm

>  <Rbt.Receptor>
sah_rdock.prm

>  <SCORE>
-33.1092

>  <SCORE.INTER>
-17.7713

>  <SCORE.INTER.CONST>
1

>  <SCORE.INTER.POLAR>
-0.75567

>  <SCORE.INTER.REPUL>
0

>  <SCORE.INTER.ROT>
2

>  <SCORE.INTER.VDW>
-22.6021

>  <SCORE.INTER.norm>
-0.683513

>  <SCORE.INTRA>
-19.8369

>  <SCORE.INTRA.DIHEDRAL>
-43.1785

>  <SCORE.INTRA.DIHEDRAL.0>
43.3921

>  <SCORE.INTRA.POLAR>
-0.00750679

>  <SCORE.INTRA.POLAR.0>
-0.879016

>  <SCORE.INTRA.REPUL>
0

>  <SCORE.INTRA.REPUL.0>
0

>  <SCORE.INTRA.VDW>
1.7779

>  <SCORE.INTRA.VDW.0>
-0.206451

>  <SCORE.INTRA.norm>
-0.762957

>  <SCORE.RESTR>
0

>  <SCORE.RESTR.CAVITY>
0

>  <SCORE.RESTR.norm>
0

>  <SCORE.SYSTEM>
4.49907

>  <SCORE.SYSTEM.CONST>
0

>  <SCORE.SYSTEM.DIHEDRAL>
9.60619

>  <SCORE.SYSTEM.POLAR>
-4.37536

>  <SCORE.SYSTEM.REPUL>
0.0421706

>  <SCORE.SYSTEM.VDW>
14.3614

>  <SCORE.SYSTEM.norm>
0.173041

>  <SCORE.heavy>
26

>  <SCORE.norm>
-1.27343

$$$$
F1362-0047
  rDOCK(R)          3D
libRbt.so/2013.1/901 2013/11/27
 27 30  0  0  0  0  0  0  0  0999 V2000
  -19.0588   18.0546  -13.0576 O   0  0  0  0  0  0
  -18.6612   19.0181  -13.9657 C   0  0  0  0  0  0
  -19.1643   20.2631  -13.9720 C   0  0  0  0  0  0
  -20.1921   20.7001  -12.9898 C   0  0  0  0  0  0
  -20.7730   21.8610  -13.0380 N   0  0  0  0  0  0
  -21.7095   22.0792  -12.0689 C   0  0  0  0  0  0
  -22.5539   23.1552  -11.8502 C   0  0  0  0  0  0
  -22.5368   24.3178  -12.6846 C   0  0  0  0  0  0
  -22.5010   25.2689  -13.3503 N   0  0  0  0  0  0
  -23.4222   22.9722  -10.7254 C   0  0  0  0  0  0
  -23.2364   21.7307  -10.1508 C   0  0  0  0  0  0
  -23.9906   21.2051   -8.9661 C   0  0  0  0  0  0
  -25.2552   22.0443   -8.7196 C   0  0  0  0  0  0
  -24.9660   23.5483   -8.8211 C   0  0  0  0  0  0
  -24.4585   23.9349  -10.2187 C   0  0  0  0  0  0
  -22.0167   20.8304  -10.9187 S   0  0  0  0  0  0
  -18.6551   21.2339  -14.9437 C   0  0  0  0  0  0
  -19.0472   22.3950  -14.9428 O   0  0  0  0  0  0
  -17.7017   20.8168  -15.7940 O   0  0  0  0  0  0
  -17.5024   19.4132  -16.0016 C   0  0  0  0  0  0
  -18.4140   18.9425  -17.1503 C   0  0  0  0  0  0
  -18.0873   17.5223  -17.6108 C   0  0  0  0  0  0
  -16.6184   17.3833  -17.9999 C   0  0  0  0  0  0
  -15.6921   17.8364  -16.8761 C   0  0  0  0  0  0
  -16.0277   19.2523  -16.4118 C   0  0  0  0  0  0
  -17.7080   18.5947  -14.8531 O   0  0  0  0  0  0
  -19.7287   18.4399  -12.4531 H   0  0  0  0  0  0
  1  2  1  0  0  0
  1 27  1  0  0  0
  2  3  2  0  0  0
  2 26  1  0  0  0
  3  4  1  0  0  0
  3 17  1  0  0  0
  4  5  2  0  0  0
  5  6  1  0  0  0
  6  7  2  0  0  0
  6 16  1  0  0  0
  7  8  1  0  0  0
  7 10  1  0  0  0
  8  9  3  0  0  0
 10 11  2  0  0  0
 10 15  1  0  0  0
 11 12  1  0  0  0
 11 16  1  0  0  0
 12 13  1  0  0  0
 13 14  1  0  0  0
 14 15  1  0  0  0
 17 18  2  0  0  0
 17 19  1  0  0  0
 19 20  1  0  0  0
 20 21  1  0  0  0
 20 25  1  0  0  0
 20 26  1  0  0  0
 21 22  1  0  0  0
 22 23  1  0  0  0
 23 24  1  0  0  0
 24 25  1  0  0  0
M  END
>  <CHROM.0>
-61.46780871,-74.07524100,111.69268608,61.08152723,-29.70350307,-60.62579266
-37.10784076,-163.03696425

>  <CHROM.1>
-0.63466074,-174.34346329,-176.77586269,-20.39633117,20.87417784,-13.31611126
0.09855241,-0.84728510,2.68882766

>  <Name>
F1362-0047

>  <RI>
2.51232e+07

>  <Rbt.Current_Directory>
/home/adria/Escritorio/rDock_CMTR_LC/2pxcA_model/inputs_sah

>  <Rbt.Executable>
rbdock ($Id: //depot/dev/client3/rdock/2013.1/src/exe/rbdock.cxx#4 $)

>  <Rbt.Library>
libRbt.so (2013.1, Build901 2013/11/27)

>  <Rbt.Parameter_File>
/home/adria/Escritorio/rDock_2013.1_src/data/scripts/dock.prm

>  <Rbt.Receptor>
sah_rdock.prm

>  <SCORE>
-44.0917

>  <SCORE.INTER>
-20.8292

>  <SCORE.INTER.CONST>
1

>  <SCORE.INTER.POLAR>
-1.61945

>  <SCORE.INTER.REPUL>
0

>  <SCORE.INTER.ROT>
2

>  <SCORE.INTER.VDW>
-22.7231

>  <SCORE.INTER.norm>
-0.801123

>  <SCORE.INTRA>
-15.8016

>  <SCORE.INTRA.DIHEDRAL>
-43.1525

>  <SCORE.INTRA.DIHEDRAL.0>
43.3921

>  <SCORE.INTRA.POLAR>
0.879016

>  <SCORE.INTRA.POLAR.0>
-0.879016

>  <SCORE.INTRA.REPUL>
0

>  <SCORE.INTRA.REPUL.0>
0

>  <SCORE.INTRA.VDW>
2.78596

>  <SCORE.INTRA.VDW.0>
-0.206451

>  <SCORE.INTRA.norm>
-0.607755

>  <SCORE.RESTR>
0

>  <SCORE.RESTR.CAVITY>
0

>  <SCORE.RESTR.norm>
0

>  <SCORE.SYSTEM>
-7.46083

>  <SCORE.SYSTEM.CONST>
0

>  <SCORE.SYSTEM.DIHEDRAL>
9.59388

>  <SCORE.SYSTEM.POLAR>
-4.65555

>  <SCORE.SYSTEM.REPUL>
0.0403989

>  <SCORE.SYSTEM.VDW>
3.3691

>  <SCORE.SYSTEM.norm>
-0.286955

>  <SCORE.heavy>
26

>  <SCORE.norm>
-1.69583

$$$$
F1362-0047
  rDOCK(R)          3D
libRbt.so/2013.1/901 2013/11/27
 27 30  0  0  0  0  0  0  0  0999 V2000
  -18.8633   17.8861  -13.1871 O   0  0  0  0  0  0
  -18.5233   18.9161  -14.0441 C   0  0  0  0  0  0
  -19.0899   20.1319  -13.9806 C   0  0  0  0  0  0
  -20.1308   20.4618  -12.9708 C   0  0  0  0  0  0
  -20.7160   21.6197  -12.9055 N   0  0  0  0  0  0
  -21.6644   21.7337  -11.9303 C   0  0  0  0  0  0
  -22.1004   20.8258  -10.9793 C   0  0  0  0  0  0
  -21.5776   19.4959  -10.9010 C   0  0  0  0  0  0
  -21.1674   18.4101  -10.8583 N   0  0  0  0  0  0
  -23.1046   21.3592  -10.1078 C   0  0  0  0  0  0
  -23.3659   22.6826  -10.4017 C   0  0  0  0  0  0
  -24.3496   23.5511   -9.6760 C   0  0  0  0  0  0
  -24.7351   22.9162   -8.3297 C   0  0  0  0  0  0
  -25.0182   21.4144   -8.4718 C   0  0  0  0  0  0
  -23.7829   20.6492   -8.9706 C   0  0  0  0  0  0
  -22.4585   23.2512  -11.7212 S   0  0  0  0  0  0
  -18.6393   21.1784  -14.9014 C   0  0  0  0  0  0
  -19.0907   22.3158  -14.8358 O   0  0  0  0  0  0
  -17.6727   20.8574  -15.7781 O   0  0  0  0  0  0
  -17.4030   19.4791  -16.0620 C   0  0  0  0  0  0
  -18.2986   19.0239  -17.2295 C   0  0  0  0  0  0
  -17.9029   17.6492  -17.7675 C   0  0  0  0  0  0
  -16.4321   17.6076  -18.1714 C   0  0  0  0  0  0
  -15.5212   18.0473  -17.0300 C   0  0  0  0  0  0
  -15.9255   19.4171  -16.4882 C   0  0  0  0  0  0
  -17.5568   18.5908  -14.9581 O   0  0  0  0  0  0
  -19.5612   18.1974  -12.5717 H   0  0  0  0  0  0
  1  2  1  0  0  0
  1 27  1  0  0  0
  2  3  2  0  0  0
  2 26  1  0  0  0
  3  4  1  0  0  0
  3 17  1  0  0  0
  4  5  2  0  0  0
  5  6  1  0  0  0
  6  7  2  0  0  0
  6 16  1  0  0  0
  7  8  1  0  0  0
  7 10  1  0  0  0
  8  9  3  0  0  0
 10 11  2  0  0  0
 10 15  1  0  0  0
 11 12  1  0  0  0
 11 16  1  0  0  0
 12 13  1  0  0  0
 13 14  1  0  0  0
 14 15  1  0  0  0
 17 18  2  0  0  0
 17 19  1  0  0  0
 19 20  1  0  0  0
 20 21  1  0  0  0
 20 25  1  0  0  0
 20 26  1  0  0  0
 21 22  1  0  0  0
 22 23  1  0  0  0
 23 24  1  0  0  0
 24 25  1  0  0  0
M  END
>  <CHROM.0>
-61.52417154,65.00984012,-47.16549078,64.09866669,-30.90868403,60.88512915
48.61180875,-162.90182684

>  <CHROM.1>
0.58890270,-178.45370956,1.02244535,-20.24341413,20.47474730,-13.16833279
0.07021018,-0.85493740,2.77851773

>  <Name>
F1362-0047

>  <RI>
2.51232e+07

>  <Rbt.Current_Directory>
/home/adria/Escritorio/rDock_CMTR_LC/2pxcA_model/inputs_sah

>  <Rbt.Executable>
rbdock ($Id: //depot/dev/client3/rdock/2013.1/src/exe/rbdock.cxx#4 $)

>  <Rbt.Library>
libRbt.so (2013.1, Build901 2013/11/27)

>  <Rbt.Parameter_File>
/home/adria/Escritorio/rDock_2013.1_src/data/scripts/dock.prm

>  <Rbt.Receptor>
sah_rdock.prm

>  <SCORE>
-42.3775

>  <SCORE.INTER>
-18.6255

>  <SCORE.INTER.CONST>
1

>  <SCORE.INTER.POLAR>
-1.44673

>  <SCORE.INTER.REPUL>
0.241781

>  <SCORE.INTER.ROT>
2

>  <SCORE.INTER.VDW>
-22.3156

>  <SCORE.INTER.norm>
-0.716367

>  <SCORE.INTRA>
-18.0823

>  <SCORE.INTRA.DIHEDRAL>
-43.3172

>  <SCORE.INTRA.DIHEDRAL.0>
43.3921

>  <SCORE.INTRA.POLAR>
0.504257

>  <SCORE.INTRA.POLAR.0>
-0.879016

>  <SCORE.INTRA.REPUL>
0

>  <SCORE.INTRA.REPUL.0>
0

>  <SCORE.INTRA.VDW>
1.86184

>  <SCORE.INTRA.VDW.0>
-0.206451

>  <SCORE.INTRA.norm>
-0.695473

>  <SCORE.RESTR>
0

>  <SCORE.RESTR.CAVITY>
0

>  <SCORE.RESTR.norm>
0

>  <SCORE.SYSTEM>
-5.66969

>  <SCORE.SYSTEM.CONST>
0

>  <SCORE.SYSTEM.DIHEDRAL>
4.76617

>  <SCORE.SYSTEM.POLAR>
-3.0206

>  <SCORE.SYSTEM.VDW>
2.21727

>  <SCORE.SYSTEM.norm>
-0.218065

>  <SCORE.heavy>
26

>  <SCORE.norm>
-1.6299

$$$$
F1362-0047
  rDOCK(R)          3D
libRbt.so/2013.1/901 2013/11/27
 27 30  0  0  0  0  0  0  0  0999 V2000
  -20.4831   20.5162  -15.0096 O   0  0  0  0  0  0
  -20.8702   20.1168  -13.7440 C   0  0  0  0  0  0
  -20.6042   18.8952  -13.2539 C   0  0  0  0  0  0
  -19.8628   17.8761  -14.0438 C   0  0  0  0  0  0
  -19.6991   16.6502  -13.6466 N   0  0  0  0  0  0
  -19.0137   15.8486  -14.5135 C   0  0  0  0  0  0
  -18.4700   16.1166  -15.7589 C   0  0  0  0  0  0
  -18.5903   17.3996  -16.3816 C   0  0  0  0  0  0
  -18.7125   18.4354  -16.8926 N   0  0  0  0  0  0
  -17.7914   14.9928  -16.3326 C   0  0  0  0  0  0
  -17.8043   13.9125  -15.4731 C   0  0  0  0  0  0
  -17.1725   12.5809  -15.7491 C   0  0  0  0  0  0
  -16.1790   12.6901  -16.9176 C   0  0  0  0  0  0
  -16.7611   13.5032  -18.0822 C   0  0  0  0  0  0
  -17.0891   14.9435  -17.6599 C   0  0  0  0  0  0
  -18.6510   14.2312  -14.0345 S   0  0  0  0  0  0
  -21.0149   18.5700  -11.8858 C   0  0  0  0  0  0
  -20.7392   17.4868  -11.3833 O   0  0  0  0  0  0
  -21.6518   19.5250  -11.1872 O   0  0  0  0  0  0
  -22.2482   20.6296  -11.8780 C   0  0  0  0  0  0
  -23.6947   20.2607  -12.2573 C   0  0  0  0  0  0
  -24.4887   21.4622  -12.7692 C   0  0  0  0  0  0
  -24.4733   22.6123  -11.7666 C   0  0  0  0  0  0
  -23.0511   23.0032  -11.3786 C   0  0  0  0  0  0
  -22.2575   21.7984  -10.8768 C   0  0  0  0  0  0
  -21.5426   21.0751  -13.0334 O   0  0  0  0  0  0
  -20.0135   19.7761  -15.4504 H   0  0  0  0  0  0
  1  2  1  0  0  0
  1 27  1  0  0  0
  2  3  2  0  0  0
  2 26  1  0  0  0
  3  4  1  0  0  0
  3 17  1  0  0  0
  4  5  2  0  0  0
  5  6  1  0  0  0
  6  7  2  0  0  0
  6 16  1  0  0  0
  7  8  1  0  0  0
  7 10  1  0  0  0
  8  9  3  0  0  0
 10 11  2  0  0  0
 10 15  1  0  0  0
 11 12  1  0  0  0
 11 16  1  0  0  0
 12 13  1  0  0  0
 13 14  1  0  0  0
 14 15  1  0  0  0
 17 18  2  0  0  0
 17 19  1  0  0  0
 19 20  1  0  0  0
 20 21  1  0  0  0
 20 25  1  0  0  0
 20 26  1  0  0  0
 21 22  1  0  0  0
 22 23  1  0  0  0
 23 24  1  0  0  0
 24 25  1  0  0  0
M  END
>  <CHROM.0>
-179.12058059,-74.29232003,72.85733004,65.87242833,-29.80610447,179.49403527
71.96656621,-162.90510039

>  <CHROM.1>
0.42337307,-173.42395345,-0.71775092,-20.08785190,17.77955161,-14.03129164
-2.92648608,-0.98593814,2.36182570

>  <Name>
F1362-0047

>  <RI>
2.51232e+07

>  <Rbt.Current_Directory>
/home/adria/Escritorio/rDock_CMTR_LC/2pxcA_model/inputs_sah

>  <Rbt.Executable>
rbdock ($Id: //depot/dev/client3/rdock/2013.1/src/exe/rbdock.cxx#4 $)

>  <Rbt.Library>
libRbt.so (2013.1, Build901 2013/11/27)

>  <Rbt.Parameter_File>
/home/adria/Escritorio/rDock_2013.1_src/data/scripts/dock.prm

>  <Rbt.Receptor>
sah_rdock.prm

>  <SCORE>
-38.1378

>  <SCORE.INTER>
-13.2466

>  <SCORE.INTER.CONST>
1

>  <SCORE.INTER.POLAR>
-1.50987

>  <SCORE.INTER.REPUL>
0

>  <SCORE.INTER.ROT>
2

>  <SCORE.INTER.VDW>
-15.513

>  <SCORE.INTER.norm>
-0.509484

>  <SCORE.INTRA>
-17.9615

>  <SCORE.INTRA.DIHEDRAL>
-43.0645

>  <SCORE.INTRA.DIHEDRAL.0>
43.3921

>  <SCORE.INTRA.POLAR>
0.509899

>  <SCORE.INTRA.POLAR.0>
-0.879016

>  <SCORE.INTRA.REPUL>
0

>  <SCORE.INTRA.REPUL.0>
0

>  <SCORE.INTRA.VDW>
1.83708

>  <SCORE.INTRA.VDW.0>
-0.206451

>  <SCORE.INTRA.norm>
-0.690827

>  <SCORE.RESTR>
0

>  <SCORE.RESTR.CAVITY>
0

>  <SCORE.RESTR.norm>
0

>  <SCORE.SYSTEM>
-6.92969

>  <SCORE.SYSTEM.CONST>
0

>  <SCORE.SYSTEM.DIHEDRAL>
5.92141

>  <SCORE.SYSTEM.POLAR>
-3.73489

>  <SCORE.SYSTEM.REPUL>
0.0407612

>  <SCORE.SYSTEM.VDW>
2.60441

>  <SCORE.SYSTEM.norm>
-0.266527

>  <SCORE.heavy>
26

>  <SCORE.norm>
-1.46684

$$$$
F1362-0047
  rDOCK(R)          3D
libRbt.so/2013.1/901 2013/11/27
 27 30  0  0  0  0  0  0  0  0999 V2000
  -19.2230   17.4789  -13.8549 O   0  0  0  0  0  0
  -18.3105   18.0183  -14.7423 C   0  0  0  0  0  0
  -18.2427   19.3332  -15.0062 C   0  0  0  0  0  0
  -19.1506   20.3134  -14.3528 C   0  0  0  0  0  0
  -19.8218   20.0497  -13.2723 N   0  0  0  0  0  0
  -20.5848   21.0788  -12.8005 C   0  0  0  0  0  0
  -21.3841   21.1718  -11.6731 C   0  0  0  0  0  0
  -21.5563   20.0752  -10.7699 C   0  0  0  0  0  0
  -21.7119   19.1739  -10.0541 N   0  0  0  0  0  0
  -21.9981   22.4572  -11.5206 C   0  0  0  0  0  0
  -21.6028   23.3192  -12.5240 C   0  0  0  0  0  0
  -22.0417   24.7466  -12.6598 C   0  0  0  0  0  0
  -22.6599   25.2456  -11.3434 C   0  0  0  0  0  0
  -23.6263   24.2145  -10.7445 C   0  0  0  0  0  0
  -22.9131   22.8950  -10.4121 C   0  0  0  0  0  0
  -20.5568   22.5840  -13.6435 S   0  0  0  0  0  0
  -17.2163   19.8240  -15.9291 C   0  0  0  0  0  0
  -17.0856   21.0222  -16.1503 O   0  0  0  0  0  0
  -16.3897   18.9161  -16.4753 O   0  0  0  0  0  0
  -16.7574   17.5312  -16.4727 C   0  0  0  0  0  0
  -17.5670   17.2259  -17.7469 C   0  0  0  0  0  0
  -17.7837   15.7275  -17.9560 C   0  0  0  0  0  0
  -16.4616   14.9659  -17.9648 C   0  0  0  0  0  0
  -15.6418   15.2448  -16.7092 C   0  0  0  0  0  0
  -15.4355   16.7435  -16.4980 C   0  0  0  0  0  0
  -17.4801   17.0974  -15.3235 O   0  0  0  0  0  0
  -19.1479   16.5008  -13.8717 H   0  0  0  0  0  0
  1  2  1  0  0  0
  1 27  1  0  0  0
  2  3  2  0  0  0
  2 26  1  0  0  0
  3  4  1  0  0  0
  3 17  1  0  0  0
  4  5  2  0  0  0
  5  6  1  0  0  0
  6  7  2  0  0  0
  6 16  1  0  0  0
  7  8  1  0  0  0
  7 10  1  0  0  0
  8  9  3  0  0  0
 10 11  2  0  0  0
 10 15  1  0  0  0
 11 12  1  0  0  0
 11 16  1  0  0  0
 12 13  1  0  0  0
 13 14  1  0  0  0
 14 15  1  0  0  0
 17 18  2  0  0  0
 17 19  1  0  0  0
 19 20  1  0  0  0
 20 21  1  0  0  0
 20 25  1  0  0  0
 20 26  1  0  0  0
 21 22  1  0  0  0
 22 23  1  0  0  0
 23 24  1  0  0  0
 24 25  1  0  0  0
M  END
>  <CHROM.0>
-62.11106872,-74.28315830,-9.53979607,65.17233769,-29.52820679,-177.65393847
-36.16074839,-162.14888767

>  <CHROM.1>
175.26614088,17.66573354,-177.79719415,-19.35493384,19.93701455,-14.13503989
0.50807687,-0.88776122,2.88361685

>  <Name>
F1362-0047

>  <RI>
2.51232e+07

>  <Rbt.Current_Directory>
/home/adria/Escritorio/rDock_CMTR_LC/2pxcA_model/inputs_sah

>  <Rbt.Executable>
rbdock ($Id: //depot/dev/client3/rdock/2013.1/src/exe/rbdock.cxx#4 $)

>  <Rbt.Library>
libRbt.so (2013.1, Build901 2013/11/27)

>  <Rbt.Parameter_File>
/home/adria/Escritorio/rDock_2013.1_src/data/scripts/dock.prm

>  <Rbt.Receptor>
sah_rdock.prm

>  <SCORE>
-39.1898

>  <SCORE.INTER>
-16.3021

>  <SCORE.INTER.CONST>
1

>  <SCORE.INTER.POLAR>
-0.814825

>  <SCORE.INTER.REPUL>
0.0277646

>  <SCORE.INTER.ROT>
2

>  <SCORE.INTER.VDW>
-21.0705

>  <SCORE.INTER.norm>
-0.627005

>  <SCORE.INTRA>
-15.4399

>  <SCORE.INTRA.DIHEDRAL>
-42.0046

>  <SCORE.INTRA.DIHEDRAL.0>
43.3921

>  <SCORE.INTRA.POLAR>
0.879016

>  <SCORE.INTRA.POLAR.0>
-0.879016

>  <SCORE.INTRA.REPUL>
0.145677

>  <SCORE.INTRA.REPUL.0>
0

>  <SCORE.INTRA.VDW>
1.84539

>  <SCORE.INTRA.VDW.0>
-0.206451

>  <SCORE.INTRA.norm>
-0.593841

>  <SCORE.RESTR>
0

>  <SCORE.RESTR.CAVITY>
0

>  <SCORE.RESTR.norm>
0

>  <SCORE.SYSTEM>
-7.44785

>  <SCORE.SYSTEM.CONST>
0

>  <SCORE.SYSTEM.DIHEDRAL>
9.87704

>  <SCORE.SYSTEM.POLAR>
-4.6718

>  <SCORE.SYSTEM.REPUL>
0.040746

>  <SCORE.SYSTEM.VDW>
3.29401

>  <SCORE.SYSTEM.norm>
-0.286456

>  <SCORE.heavy>
26

>  <SCORE.norm>
-1.5073

$$$$
F1362-0047
  rDOCK(R)          3D
libRbt.so/2013.1/901 2013/11/27
 27 30  0  0  0  0  0  0  0  0999 V2000
  -20.8353   20.0839  -11.3343 O   0  0  0  0  0  0
  -20.8577   21.2533  -12.0713 C   0  0  0  0  0  0
  -20.4007   21.3272  -13.3319 C   0  0  0  0  0  0
  -19.8364   20.1434  -14.0336 C   0  0  0  0  0  0
  -19.2650   20.2133  -15.1981 N   0  0  0  0  0  0
  -18.7830   19.0292  -15.6771 C   0  0  0  0  0  0
  -18.8798   17.7418  -15.1755 C   0  0  0  0  0  0
  -19.5465   17.4537  -13.9423 C   0  0  0  0  0  0
  -20.0671   17.2295  -12.9286 N   0  0  0  0  0  0
  -18.2549   16.7611  -16.0123 C   0  0  0  0  0  0
  -17.7395   17.3387  -17.1554 C   0  0  0  0  0  0
  -17.0340   16.6010  -18.2539 C   0  0  0  0  0  0
  -17.3027   15.0910  -18.1451 C   0  0  0  0  0  0
  -17.1701   14.5946  -16.6988 C   0  0  0  0  0  0
  -18.1828   15.2802  -15.7689 C   0  0  0  0  0  0
  -17.9633   19.0228  -17.1953 S   0  0  0  0  0  0
  -20.5014   22.5976  -14.0543 C   0  0  0  0  0  0
  -20.1489   22.6894  -15.2244 O   0  0  0  0  0  0
  -21.0482   23.6383  -13.4033 O   0  0  0  0  0  0
  -21.1411   23.6099  -11.9737 C   0  0  0  0  0  0
  -19.8524   24.2054  -11.3763 C   0  0  0  0  0  0
  -19.9649   24.4500   -9.8719 C   0  0  0  0  0  0
  -21.1675   25.3265   -9.5350 C   0  0  0  0  0  0
  -22.4600   24.7555  -10.1091 C   0  0  0  0  0  0
  -22.3408   24.5032  -11.6109 C   0  0  0  0  0  0
  -21.3900   22.3261  -11.4072 O   0  0  0  0  0  0
  -20.4482   19.3670  -11.8809 H   0  0  0  0  0  0
  1  2  1  0  0  0
  1 27  1  0  0  0
  2  3  2  0  0  0
  2 26  1  0  0  0
  3  4  1  0  0  0
  3 17  1  0  0  0
  4  5  2  0  0  0
  5  6  1  0  0  0
  6  7  2  0  0  0
  6 16  1  0  0  0
  7  8  1  0  0  0
  7 10  1  0  0  0
  8  9  3  0  0  0
 10 11  2  0  0  0
 10 15  1  0  0  0
 11 12  1  0  0  0
 11 16  1  0  0  0
 12 13  1  0  0  0
 13 14  1  0  0  0
 14 15  1  0  0  0
 17 18  2  0  0  0
 17 19  1  0  0  0
 19 20  1  0  0  0
 20 21  1  0  0  0
 20 25  1  0  0  0
 20 26  1  0  0  0
 21 22  1  0  0  0
 22 23  1  0  0  0
 23 24  1  0  0  0
 24 25  1  0  0  0
M  END
>  <CHROM.0>
-58.31213590,-69.15882149,-128.70581195,66.07500932,-29.94045739,58.53066107
-157.11033573,-163.03068797

>  <CHROM.1>
-0.20293895,-172.80358047,5.13588712,-19.64604995,20.28631393,-14.01138733
2.63347784,1.17160101,-0.37584426

>  <Name>
F1362-0047

>  <RI>
2.51232e+07

>  <Rbt.Current_Directory>
/home/adria/Escritorio/rDock_CMTR_LC/2pxcA_model/inputs_sah

>  <Rbt.Executable>
rbdock ($Id: //depot/dev/client3/rdock/2013.1/src/exe/rbdock.cxx#4 $)

>  <Rbt.Library>
libRbt.so (2013.1, Build901 2013/11/27)

>  <Rbt.Parameter_File>
/home/adria/Escritorio/rDock_2013.1_src/data/scripts/dock.prm

>  <Rbt.Receptor>
sah_rdock.prm

>  <SCORE>
-38.2066

>  <SCORE.INTER>
-13.3946

>  <SCORE.INTER.CONST>
1

>  <SCORE.INTER.POLAR>
-0.653055

>  <SCORE.INTER.REPUL>
0

>  <SCORE.INTER.ROT>
2

>  <SCORE.INTER.VDW>
-18.5743

>  <SCORE.INTER.norm>
-0.515178

>  <SCORE.INTRA>
-17.5532

>  <SCORE.INTRA.DIHEDRAL>
-42.936

>  <SCORE.INTRA.DIHEDRAL.0>
43.3921

>  <SCORE.INTRA.POLAR>
0.618404

>  <SCORE.INTRA.POLAR.0>
-0.879016

>  <SCORE.INTRA.REPUL>
0

>  <SCORE.INTRA.REPUL.0>
0

>  <SCORE.INTRA.VDW>
1.81224

>  <SCORE.INTRA.VDW.0>
-0.206451

>  <SCORE.INTRA.norm>
-0.675122

>  <SCORE.RESTR>
0

>  <SCORE.RESTR.CAVITY>
0

>  <SCORE.RESTR.norm>
0

>  <SCORE.SYSTEM>
-7.25877

>  <SCORE.SYSTEM.CONST>
0

>  <SCORE.SYSTEM.DIHEDRAL>
9.18756

>  <SCORE.SYSTEM.POLAR>
-4.54178

>  <SCORE.SYSTEM.REPUL>
0.0309673

>  <SCORE.SYSTEM.VDW>
3.43468

>  <SCORE.SYSTEM.norm>
-0.279184

>  <SCORE.heavy>
26

>  <SCORE.norm>
-1.46948

$$$$
F1362-0047
  rDOCK(R)          3D
libRbt.so/2013.1/901 2013/11/27
 27 30  0  0  0  0  0  0  0  0999 V2000
  -22.8471   23.1737  -12.0699 O   0  0  0  0  0  0
  -23.0259   22.3437  -10.9789 C   0  0  0  0  0  0
  -22.3789   21.1752  -10.8405 C   0  0  0  0  0  0
  -21.4107   20.6878  -11.8589 C   0  0  0  0  0  0
  -20.9200   21.4457  -12.7929 N   0  0  0  0  0  0
  -20.0258   20.8337  -13.6233 C   0  0  0  0  0  0
  -19.6038   19.5161  -13.6880 C   0  0  0  0  0  0
  -20.0799   18.5190  -12.7784 C   0  0  0  0  0  0
  -20.4511   17.7198  -12.0217 N   0  0  0  0  0  0
  -18.6644   19.2749  -14.7425 C   0  0  0  0  0  0
  -18.4383   20.4209  -15.4785 C   0  0  0  0  0  0
  -17.5247   20.5209  -16.6633 C   0  0  0  0  0  0
  -17.1828   19.1201  -17.1971 C   0  0  0  0  0  0
  -16.8372   18.1490  -16.0598 C   0  0  0  0  0  0
  -18.0171   17.9652  -15.0931 C   0  0  0  0  0  0
  -19.3001   21.7600  -14.8851 S   0  0  0  0  0  0
  -22.5967   20.3775   -9.6312 C   0  0  0  0  0  0
  -21.9812   19.3348   -9.4420 O   0  0  0  0  0  0
  -23.4511   20.8633   -8.7148 O   0  0  0  0  0  0
  -24.3888   21.8800   -9.0891 C   0  0  0  0  0  0
  -25.6766   21.2089   -9.6025 C   0  0  0  0  0  0
  -26.8216   22.2047   -9.7843 C   0  0  0  0  0  0
  -27.0967   22.9828   -8.5009 C   0  0  0  0  0  0
  -25.8381   23.6643   -7.9738 C   0  0  0  0  0  0
  -24.6930   22.6680   -7.8026 C   0  0  0  0  0  0
  -23.9145   22.8184  -10.0513 O   0  0  0  0  0  0
  -22.1903   22.7698  -12.6765 H   0  0  0  0  0  0
  1  2  1  0  0  0
  1 27  1  0  0  0
  2  3  2  0  0  0
  2 26  1  0  0  0
  3  4  1  0  0  0
  3 17  1  0  0  0
  4  5  2  0  0  0
  5  6  1  0  0  0
  6  7  2  0  0  0
  6 16  1  0  0  0
  7  8  1  0  0  0
  7 10  1  0  0  0
  8  9  3  0  0  0
 10 11  2  0  0  0
 10 15  1  0  0  0
 11 12  1  0  0  0
 11 16  1  0  0  0
 12 13  1  0  0  0
 13 14  1  0  0  0
 14 15  1  0  0  0
 17 18  2  0  0  0
 17 19  1  0  0  0
 19 20  1  0  0  0
 20 21  1  0  0  0
 20 25  1  0  0  0
 20 26  1  0  0  0
 21 22  1  0  0  0
 22 23  1  0  0  0
 23 24  1  0  0  0
 24 25  1  0  0  0
M  END
>  <CHROM.0>
-60.81769525,66.52359694,76.24630324,63.71617640,-29.98560603,-56.40323778
-32.96803508,-159.38860452

>  <CHROM.1>
-0.56665470,14.30881766,4.10140963,-21.60865609,20.87710477,-12.06158508
3.00113450,-0.78138561,2.54304150

>  <Name>
F1362-0047

>  <RI>
2.51232e+07

>  <Rbt.Current_Directory>
/home/adria/Escritorio/rDock_CMTR_LC/2pxcA_model/inputs_sah

>  <Rbt.Executable>
rbdock ($Id: //depot/dev/client3/rdock/2013.1/src/exe/rbdock.cxx#4 $)

>  <Rbt.Library>
libRbt.so (2013.1, Build901 2013/11/27)

>  <Rbt.Parameter_File>
/home/adria/Escritorio/rDock_2013.1_src/data/scripts/dock.prm

>  <Rbt.Receptor>
sah_rdock.prm

>  <SCORE>
-43.3401

>  <SCORE.INTER>
-16.8644

>  <SCORE.INTER.CONST>
1

>  <SCORE.INTER.POLAR>
-1.16622

>  <SCORE.INTER.REPUL>
0

>  <SCORE.INTER.ROT>
2

>  <SCORE.INTER.VDW>
-20.2992

>  <SCORE.INTER.norm>
-0.648629

>  <SCORE.INTRA>
-19.4203

>  <SCORE.INTRA.DIHEDRAL>
-42.4579

>  <SCORE.INTRA.DIHEDRAL.0>
43.3921

>  <SCORE.INTRA.POLAR>
0.0199137

>  <SCORE.INTRA.POLAR.0>
-0.879016

>  <SCORE.INTRA.REPUL>
0

>  <SCORE.INTRA.REPUL.0>
0

>  <SCORE.INTRA.VDW>
1.74097

>  <SCORE.INTRA.VDW.0>
-0.206451

>  <SCORE.INTRA.norm>
-0.746934

>  <SCORE.RESTR>
0.0118768

>  <SCORE.RESTR.CAVITY>
0.0118768

>  <SCORE.RESTR.norm>
0.0004568

>  <SCORE.SYSTEM>
-7.06737

>  <SCORE.SYSTEM.CONST>
0

>  <SCORE.SYSTEM.DIHEDRAL>
6.64321

>  <SCORE.SYSTEM.POLAR>
-3.77362

>  <SCORE.SYSTEM.VDW>
2.44133

>  <SCORE.SYSTEM.norm>
-0.271822

>  <SCORE.heavy>
26

>  <SCORE.norm>
-1.66693

$$$$
F1362-0047
  rDOCK(R)          3D
libRbt.so/2013.1/901 2013/11/27
 27 30  0  0  0  0  0  0  0  0999 V2000
  -19.1909   17.9354  -13.2115 O   0  0  0  0  0  0
  -18.7489   18.9487  -14.0416 C   0  0  0  0  0  0
  -19.2510   20.1934  -14.0005 C   0  0  0  0  0  0
  -20.3261   20.5758  -13.0465 C   0  0  0  0  0  0
  -21.1006   19.7103  -12.4645 N   0  0  0  0  0  0
  -22.0142   20.2417  -11.6005 C   0  0  0  0  0  0
  -23.0397   19.6451  -10.8857 C   0  0  0  0  0  0
  -23.3259   18.2467  -10.9891 C   0  0  0  0  0  0
  -23.5691   17.1160  -11.0962 N   0  0  0  0  0  0
  -23.7574   20.5643  -10.0536 C   0  0  0  0  0  0
  -23.2166   21.8321  -10.1318 C   0  0  0  0  0  0
  -23.7118   23.0309   -9.3793 C   0  0  0  0  0  0
  -24.6284   22.5979   -8.2232 C   0  0  0  0  0  0
  -25.6284   21.5209   -8.6658 C   0  0  0  0  0  0
  -24.9149   20.2490   -9.1490 C   0  0  0  0  0  0
  -21.9090   21.9199  -11.2137 S   0  0  0  0  0  0
  -18.6944   21.2174  -14.8881 C   0  0  0  0  0  0
  -19.0861   22.3775  -14.8392 O   0  0  0  0  0  0
  -17.7002   20.8474  -15.7131 O   0  0  0  0  0  0
  -17.4909   19.4575  -15.9916 C   0  0  0  0  0  0
  -18.3448   19.0568  -17.2092 C   0  0  0  0  0  0
  -17.9958   17.6646  -17.7345 C   0  0  0  0  0  0
  -16.5095   17.5442  -18.0582 C   0  0  0  0  0  0
  -15.6397   17.9287  -16.8658 C   0  0  0  0  0  0
  -15.9979   19.3164  -16.3373 C   0  0  0  0  0  0
  -17.7530   18.5745  -14.9039 O   0  0  0  0  0  0
  -19.9188   18.2758  -12.6486 H   0  0  0  0  0  0
  1  2  1  0  0  0
  1 27  1  0  0  0
  2  3  2  0  0  0
  2 26  1  0  0  0
  3  4  1  0  0  0
  3 17  1  0  0  0
  4  5  2  0  0  0
  5  6  1  0  0  0
  6  7  2  0  0  0
  6 16  1  0  0  0
  7  8  1  0  0  0
  7 10  1  0  0  0
  8  9  3  0  0  0
 10 11  2  0  0  0
 10 15  1  0  0  0
 11 12  1  0  0  0
 11 16  1  0  0  0
 12 13  1  0  0  0
 13 14  1  0  0  0
 14 15  1  0  0  0
 17 18  2  0  0  0
 17 19  1  0  0  0
 19 20  1  0  0  0
 20 21  1  0  0  0
 20 25  1  0  0  0
 20 26  1  0  0  0
 21 22  1  0  0  0
 22 23  1  0  0  0
 23 24  1  0  0  0
 24 25  1  0  0  0
M  END
>  <CHROM.0>
40.12596167,67.26862274,72.59010777,65.75567333,-30.25082249,-60.84792715
-37.85449507,-161.65278129

>  <CHROM.1>
2.00156603,-19.54560425,175.14162714,-20.51636978,20.02008183,-13.07324132
0.36357427,-0.74813144,-2.95552391

>  <Name>
F1362-0047

>  <RI>
2.51232e+07

>  <Rbt.Current_Directory>
/home/adria/Escritorio/rDock_CMTR_LC/2pxcA_model/inputs_sah

>  <Rbt.Executable>
rbdock ($Id: //depot/dev/client3/rdock/2013.1/src/exe/rbdock.cxx#4 $)

>  <Rbt.Library>
libRbt.so (2013.1, Build901 2013/11/27)

>  <Rbt.Parameter_File>
/home/adria/Escritorio/rDock_2013.1_src/data/scripts/dock.prm

>  <Rbt.Receptor>
sah_rdock.prm

>  <SCORE>
-36.9602

>  <SCORE.INTER>
-15.7056

>  <SCORE.INTER.CONST>
1

>  <SCORE.INTER.POLAR>
-0.824621

>  <SCORE.INTER.REPUL>
0.0125533

>  <SCORE.INTER.ROT>
2

>  <SCORE.INTER.VDW>
-20.3646

>  <SCORE.INTER.norm>
-0.604061

>  <SCORE.INTRA>
-18.198

>  <SCORE.INTRA.DIHEDRAL>
-41.562

>  <SCORE.INTRA.DIHEDRAL.0>
43.3921

>  <SCORE.INTRA.POLAR>
0.0306243

>  <SCORE.INTRA.POLAR.0>
-0.879016

>  <SCORE.INTRA.REPUL>
0

>  <SCORE.INTRA.REPUL.0>
0

>  <SCORE.INTRA.VDW>
2.47886

>  <SCORE.INTRA.VDW.0>
-0.206451

>  <SCORE.INTRA.norm>
-0.699923

>  <SCORE.RESTR>
0

>  <SCORE.RESTR.CAVITY>
0

>  <SCORE.RESTR.norm>
0

>  <SCORE.SYSTEM>
-3.05656

>  <SCORE.SYSTEM.CONST>
0

>  <SCORE.SYSTEM.DIHEDRAL>
7.68706

>  <SCORE.SYSTEM.POLAR>
-3.66697

>  <SCORE.SYSTEM.REPUL>
0.122775

>  <SCORE.SYSTEM.VDW>
4.95373

>  <SCORE.SYSTEM.norm>
-0.11756

>  <SCORE.heavy>
26

>  <SCORE.norm>
-1.42154

$$$$
F1362-0047
  rDOCK(R)          3D
libRbt.so/2013.1/901 2013/11/27
 27 30  0  0  0  0  0  0  0  0999 V2000
  -21.1616   23.4648  -13.1397 O   0  0  0  0  0  0
  -21.6916   22.6142  -12.1874 C   0  0  0  0  0  0
  -21.3792   21.3098  -12.1230 C   0  0  0  0  0  0
  -20.4279   20.6817  -13.0783 C   0  0  0  0  0  0
  -20.3035   19.3960  -13.2154 N   0  0  0  0  0  0
  -19.3989   19.0003  -14.1583 C   0  0  0  0  0  0
  -18.6001   19.7399  -15.0147 C   0  0  0  0  0  0
  -18.6402   21.1701  -15.0477 C   0  0  0  0  0  0
  -18.6952   22.3296  -15.0874 N   0  0  0  0  0  0
  -17.7525   18.9293  -15.8376 C   0  0  0  0  0  0
  -17.9061   17.5896  -15.5416 C   0  0  0  0  0  0
  -17.1613   16.4678  -16.2014 C   0  0  0  0  0  0
  -15.9347   17.0080  -16.9550 C   0  0  0  0  0  0
  -16.2766   18.2650  -17.7668 C   0  0  0  0  0  0
  -16.7647   19.4079  -16.8636 C   0  0  0  0  0  0
  -19.0733   17.3154  -14.3372 S   0  0  0  0  0  0
  -21.9553   20.4897  -11.0545 C   0  0  0  0  0  0
  -21.6493   19.3099  -10.9280 O   0  0  0  0  0  0
  -22.7837   21.0959  -10.1872 O   0  0  0  0  0  0
  -23.3789   22.3518  -10.5358 C   0  0  0  0  0  0
  -24.7070   22.0896  -11.2705 C   0  0  0  0  0  0
  -25.5332   23.3620  -11.4552 C   0  0  0  0  0  0
  -25.7856   24.0645  -10.1245 C   0  0  0  0  0  0
  -24.4850   24.3431   -9.3783 C   0  0  0  0  0  0
  -23.6572   23.0712   -9.2040 C   0  0  0  0  0  0
  -22.5569   23.2177  -11.3142 O   0  0  0  0  0  0
  -20.5295   22.9657  -13.7000 H   0  0  0  0  0  0
  1  2  1  0  0  0
  1 27  1  0  0  0
  2  3  2  0  0  0
  2 26  1  0  0  0
  3  4  1  0  0  0
  3 17  1  0  0  0
  4  5  2  0  0  0
  5  6  1  0  0  0
  6  7  2  0  0  0
  6 16  1  0  0  0
  7  8  1  0  0  0
  7 10  1  0  0  0
  8  9  3  0  0  0
 10 11  2  0  0  0
 10 15  1  0  0  0
 11 12  1  0  0  0
 11 16  1  0  0  0
 12 13  1  0  0  0
 13 14  1  0  0  0
 14 15  1  0  0  0
 17 18  2  0  0  0
 17 19  1  0  0  0
 19 20  1  0  0  0
 20 21  1  0  0  0
 20 25  1  0  0  0
 20 26  1  0  0  0
 21 22  1  0  0  0
 22 23  1  0  0  0
 23 24  1  0  0  0
 24 25  1  0  0  0
M  END
>  <CHROM.0>
-174.79557796,65.28325551,-168.27548659,-60.55865379,31.03587131,-56.31629081
-156.59622203,-163.19759083

>  <CHROM.1>
-1.93723838,-166.01868734,-1.15286269,-20.65993885,20.57747729,-13.15880007
-2.79604963,-0.78804224,2.88860801

>  <Name>
F1362-0047

>  <RI>
2.51232e+07

>  <Rbt.Current_Directory>
/home/adria/Escritorio/rDock_CMTR_LC/2pxcA_model/inputs_sah

>  <Rbt.Executable>
rbdock ($Id: //depot/dev/client3/rdock/2013.1/src/exe/rbdock.cxx#4 $)

>  <Rbt.Library>
libRbt.so (2013.1, Build901 2013/11/27)

>  <Rbt.Parameter_File>
/home/adria/Escritorio/rDock_2013.1_src/data/scripts/dock.prm

>  <Rbt.Receptor>
sah_rdock.prm

>  <SCORE>
-22.9039

>  <SCORE.INTER>
-10.7211

>  <SCORE.INTER.CONST>
1

>  <SCORE.INTER.POLAR>
-0.00810875

>  <SCORE.INTER.REPUL>
0.131935

>  <SCORE.INTER.ROT>
2

>  <SCORE.INTER.VDW>
-18.7532

>  <SCORE.INTER.norm>
-0.412351

>  <SCORE.INTRA>
-17.4993

>  <SCORE.INTRA.DIHEDRAL>
-42.4368

>  <SCORE.INTRA.DIHEDRAL.0>
43.3921

>  <SCORE.INTRA.POLAR>
0.570049

>  <SCORE.INTRA.POLAR.0>
-0.879016

>  <SCORE.INTRA.REPUL>
0

>  <SCORE.INTRA.REPUL.0>
0

>  <SCORE.INTRA.VDW>
1.7809

>  <SCORE.INTRA.VDW.0>
-0.206451

>  <SCORE.INTRA.norm>
-0.673051

>  <SCORE.RESTR>
0

>  <SCORE.RESTR.CAVITY>
0

>  <SCORE.RESTR.norm>
0

>  <SCORE.SYSTEM>
5.31656

>  <SCORE.SYSTEM.CONST>
0

>  <SCORE.SYSTEM.DIHEDRAL>
5.63004

>  <SCORE.SYSTEM.POLAR>
-3.39797

>  <SCORE.SYSTEM.VDW>
14.0546

>  <SCORE.SYSTEM.norm>
0.204483

>  <SCORE.heavy>
26

>  <SCORE.norm>
-0.880919

$$$$
F1362-0047
  rDOCK(R)          3D
libRbt.so/2013.1/901 2013/11/27
 27 30  0  0  0  0  0  0  0  0999 V2000
  -21.8000   22.9463  -13.1207 O   0  0  0  0  0  0
  -22.1144   22.2203  -11.9870 C   0  0  0  0  0  0
  -21.6411   20.9842  -11.7605 C   0  0  0  0  0  0
  -20.7321   20.3030  -12.7205 C   0  0  0  0  0  0
  -20.0254   20.9405  -13.6047 N   0  0  0  0  0  0
  -19.2284   20.1528  -14.3845 C   0  0  0  0  0  0
  -19.0943   18.7754  -14.4431 C   0  0  0  0  0  0
  -19.8330   17.9017  -13.5833 C   0  0  0  0  0  0
  -20.4167   17.1991  -12.8660 N   0  0  0  0  0  0
  -18.1589   18.3408  -15.4374 C   0  0  0  0  0  0
  -17.6439   19.4132  -16.1379 C   0  0  0  0  0  0
  -16.6519   19.3175  -17.2584 C   0  0  0  0  0  0
  -16.5818   17.8770  -17.7916 C   0  0  0  0  0  0
  -16.5296   16.8522  -16.6501 C   0  0  0  0  0  0
  -17.7842   16.9234  -15.7663 C   0  0  0  0  0  0
  -18.2379   20.9046  -15.5805 S   0  0  0  0  0  0
  -21.9919   20.3032  -10.5118 C   0  0  0  0  0  0
  -21.5330   19.1991  -10.2431 O   0  0  0  0  0  0
  -22.7866   20.9606   -9.6503 O   0  0  0  0  0  0
  -23.5645   22.0721  -10.1111 C   0  0  0  0  0  0
  -24.9240   21.5557  -10.6184 C   0  0  0  0  0  0
  -25.9138   22.6878  -10.8915 C   0  0  0  0  0  0
  -26.1008   23.5767   -9.6655 C   0  0  0  0  0  0
  -24.7691   24.1083   -9.1459 C   0  0  0  0  0  0
  -23.7791   22.9750   -8.8833 C   0  0  0  0  0  0
  -22.9447   22.8722  -11.1146 O   0  0  0  0  0  0
  -22.2079   23.8362  -13.0556 H   0  0  0  0  0  0
  1  2  1  0  0  0
  1 27  1  0  0  0
  2  3  2  0  0  0
  2 26  1  0  0  0
  3  4  1  0  0  0
  3 17  1  0  0  0
  4  5  2  0  0  0
  5  6  1  0  0  0
  6  7  2  0  0  0
  6 16  1  0  0  0
  7  8  1  0  0  0
  7 10  1  0  0  0
  8  9  3  0  0  0
 10 11  2  0  0  0
 10 15  1  0  0  0
 11 12  1  0  0  0
 11 16  1  0  0  0
 12 13  1  0  0  0
 13 14  1  0  0  0
 14 15  1  0  0  0
 17 18  2  0  0  0
 17 19  1  0  0  0
 19 20  1  0  0  0
 20 21  1  0  0  0
 20 25  1  0  0  0
 20 26  1  0  0  0
 21 22  1  0  0  0
 22 23  1  0  0  0
 23 24  1  0  0  0
 24 25  1  0  0  0
M  END
>  <CHROM.0>
-179.79381007,-73.53482084,-47.38351824,65.28624436,167.68512229,59.75762777
109.87232073,-163.67647154

>  <CHROM.1>
-176.67014385,20.97207569,3.88765149,-20.88226920,20.51219425,-12.92342031
-3.00529620,-0.82268679,2.73379780

>  <Name>
F1362-0047

>  <RI>
2.51232e+07

>  <Rbt.Current_Directory>
/home/adria/Escritorio/rDock_CMTR_LC/2pxcA_model/inputs_sah

>  <Rbt.Executable>
rbdock ($Id: //depot/dev/client3/rdock/2013.1/src/exe/rbdock.cxx#4 $)

>  <Rbt.Library>
libRbt.so (2013.1, Build901 2013/11/27)

>  <Rbt.Parameter_File>
/home/adria/Escritorio/rDock_2013.1_src/data/scripts/dock.prm

>  <Rbt.Receptor>
sah_rdock.prm

>  <SCORE>
-31.2922

>  <SCORE.INTER>
-14.9609

>  <SCORE.INTER.CONST>
1

>  <SCORE.INTER.POLAR>
-1.41816

>  <SCORE.INTER.REPUL>
0.12066

>  <SCORE.INTER.ROT>
2

>  <SCORE.INTER.VDW>
-18.1425

>  <SCORE.INTER.norm>
-0.57542

>  <SCORE.INTRA>
-16.316

>  <SCORE.INTRA.DIHEDRAL>
-41.6007

>  <SCORE.INTRA.DIHEDRAL.0>
43.3921

>  <SCORE.INTRA.POLAR>
0.879016

>  <SCORE.INTRA.POLAR.0>
-0.879016

>  <SCORE.INTRA.REPUL>
0.105571

>  <SCORE.INTRA.REPUL.0>
0

>  <SCORE.INTRA.VDW>
0.967859

>  <SCORE.INTRA.VDW.0>
-0.206451

>  <SCORE.INTRA.norm>
-0.627538

>  <SCORE.RESTR>
0

>  <SCORE.RESTR.CAVITY>
0

>  <SCORE.RESTR.norm>
0

>  <SCORE.SYSTEM>
-0.0153122

>  <SCORE.SYSTEM.CONST>
0

>  <SCORE.SYSTEM.DIHEDRAL>
5.83812

>  <SCORE.SYSTEM.POLAR>
-3.72547

>  <SCORE.SYSTEM.REPUL>
0.0394766

>  <SCORE.SYSTEM.VDW>
9.53484

>  <SCORE.SYSTEM.norm>
-0.00058893

>  <SCORE.heavy>
26

>  <SCORE.norm>
-1.20355

$$$$
F1362-0047
  rDOCK(R)          3D
libRbt.so/2013.1/901 2013/11/27
 27 30  0  0  0  0  0  0  0  0999 V2000
  -19.6558   16.6865  -13.7101 O   0  0  0  0  0  0
  -18.7167   17.0564  -14.6548 C   0  0  0  0  0  0
  -18.4703   18.3377  -14.9724 C   0  0  0  0  0  0
  -19.1942   19.4617  -14.3208 C   0  0  0  0  0  0
  -19.9885   19.3019  -13.3054 N   0  0  0  0  0  0
  -20.5467   20.4501  -12.8221 C   0  0  0  0  0  0
  -20.4550   21.7591  -13.2656 C   0  0  0  0  0  0
  -19.6557   22.1256  -14.3948 C   0  0  0  0  0  0
  -18.9858   22.4206  -15.2966 N   0  0  0  0  0  0
  -21.2328   22.6755  -12.4860 C   0  0  0  0  0  0
  -21.9318   22.0160  -11.4948 C   0  0  0  0  0  0
  -22.8550   22.6673  -10.5088 C   0  0  0  0  0  0
  -23.2340   24.0807  -10.9810 C   0  0  0  0  0  0
  -22.0108   24.8545  -11.4920 C   0  0  0  0  0  0
  -21.3620   24.1574  -12.6975 C   0  0  0  0  0  0
  -21.6222   20.3452  -11.4770 S   0  0  0  0  0  0
  -17.4274   18.6416  -15.9552 C   0  0  0  0  0  0
  -17.1338   19.7997  -16.2281 O   0  0  0  0  0  0
  -16.7683   17.6046  -16.4992 O   0  0  0  0  0  0
  -17.3334   16.2898  -16.4275 C   0  0  0  0  0  0
  -18.2372   16.0658  -17.6543 C   0  0  0  0  0  0
  -18.6795   14.6097  -17.7958 C   0  0  0  0  0  0
  -17.4844   13.6617  -17.8293 C   0  0  0  0  0  0
  -16.5752   13.8575  -16.6205 C   0  0  0  0  0  0
  -16.1430   15.3154  -16.4765 C   0  0  0  0  0  0
  -18.0574   16.0048  -15.2334 O   0  0  0  0  0  0
  -20.1059   17.4904  -13.3728 H   0  0  0  0  0  0
  1  2  1  0  0  0
  1 27  1  0  0  0
  2  3  2  0  0  0
  2 26  1  0  0  0
  3  4  1  0  0  0
  3 17  1  0  0  0
  4  5  2  0  0  0
  5  6  1  0  0  0
  6  7  2  0  0  0
  6 16  1  0  0  0
  7  8  1  0  0  0
  7 10  1  0  0  0
  8  9  3  0  0  0
 10 11  2  0  0  0
 10 15  1  0  0  0
 11 12  1  0  0  0
 11 16  1  0  0  0
 12 13  1  0  0  0
 13 14  1  0  0  0
 14 15  1  0  0  0
 17 18  2  0  0  0
 17 19  1  0  0  0
 19 20  1  0  0  0
 20 21  1  0  0  0
 20 25  1  0  0  0
 20 26  1  0  0  0
 21 22  1  0  0  0
 22 23  1  0  0  0
 23 24  1  0  0  0
 24 25  1  0  0  0
M  END
>  <CHROM.0>
-179.39002683,65.98597829,108.74611359,63.75697488,168.01770404,-178.29472684
-36.55259690,-161.18168937

>  <CHROM.1>
2.53826544,8.26493210,3.08992247,-19.44778833,19.21837551,-14.30191866,0.83813493
-0.84359588,3.13720342

>  <Name>
F1362-0047

>  <RI>
2.51232e+07

>  <Rbt.Current_Directory>
/home/adria/Escritorio/rDock_CMTR_LC/2pxcA_model/inputs_sah

>  <Rbt.Executable>
rbdock ($Id: //depot/dev/client3/rdock/2013.1/src/exe/rbdock.cxx#4 $)

>  <Rbt.Library>
libRbt.so (2013.1, Build901 2013/11/27)

>  <Rbt.Parameter_File>
/home/adria/Escritorio/rDock_2013.1_src/data/scripts/dock.prm

>  <Rbt.Receptor>
sah_rdock.prm

>  <SCORE>
-35.7779

>  <SCORE.INTER>
-14.4326

>  <SCORE.INTER.CONST>
1

>  <SCORE.INTER.POLAR>
-0.799988

>  <SCORE.INTER.REPUL>
0

>  <SCORE.INTER.ROT>
2

>  <SCORE.INTER.VDW>
-19.1127

>  <SCORE.INTER.norm>
-0.5551

>  <SCORE.INTRA>
-19.6693

>  <SCORE.INTRA.DIHEDRAL>
-42.9779

>  <SCORE.INTRA.DIHEDRAL.0>
43.3921

>  <SCORE.INTRA.POLAR>
0.0160342

>  <SCORE.INTRA.POLAR.0>
-0.879016

>  <SCORE.INTRA.REPUL>
0

>  <SCORE.INTRA.REPUL.0>
0

>  <SCORE.INTRA.VDW>
1.76507

>  <SCORE.INTRA.VDW.0>
-0.206451

>  <SCORE.INTRA.norm>
-0.756513

>  <SCORE.RESTR>
0

>  <SCORE.RESTR.CAVITY>
0

>  <SCORE.RESTR.norm>
0

>  <SCORE.SYSTEM>
-1.67591

>  <SCORE.SYSTEM.CONST>
0

>  <SCORE.SYSTEM.DIHEDRAL>
5.93006

>  <SCORE.SYSTEM.POLAR>
-4.16491

>  <SCORE.SYSTEM.VDW>
9.51974

>  <SCORE.SYSTEM.norm>
-0.0644582

>  <SCORE.heavy>
26

>  <SCORE.norm>
-1.37607

$$$$
F1362-0047
  rDOCK(R)          3D
libRbt.so/2013.1/901 2013/11/27
 27 30  0  0  0  0  0  0  0  0999 V2000
  -20.9360   20.1639  -11.2672 O   0  0  0  0  0  0
  -20.9217   21.3212  -12.0232 C   0  0  0  0  0  0
  -20.4613   21.3604  -13.2841 C   0  0  0  0  0  0
  -19.9328   20.1486  -13.9655 C   0  0  0  0  0  0
  -19.4248   20.1702  -15.1609 N   0  0  0  0  0  0
  -18.9666   18.9673  -15.6157 C   0  0  0  0  0  0
  -19.0619   17.6968  -15.0723 C   0  0  0  0  0  0
  -19.6983   17.4532  -13.8139 C   0  0  0  0  0  0
  -20.1941   17.2652  -12.7805 N   0  0  0  0  0  0
  -18.4683   16.6848  -15.8946 C   0  0  0  0  0  0
  -17.9780   17.2222  -17.0680 C   0  0  0  0  0  0
  -17.3086   16.4443  -18.1614 C   0  0  0  0  0  0
  -17.5881   14.9410  -17.9991 C   0  0  0  0  0  0
  -17.4219   14.4877  -16.5421 C   0  0  0  0  0  0
  -18.4034   15.2114  -15.6077 C   0  0  0  0  0  0
  -18.1873   18.9064  -17.1538 S   0  0  0  0  0  0
  -20.5223   22.6213  -14.0274 C   0  0  0  0  0  0
  -20.1659   22.6831  -15.1982 O   0  0  0  0  0  0
  -21.0377   23.6888  -13.3943 O   0  0  0  0  0  0
  -21.1330   23.6867  -11.9646 C   0  0  0  0  0  0
  -19.8273   24.2522  -11.3750 C   0  0  0  0  0  0
  -19.9338   24.5247   -9.8749 C   0  0  0  0  0  0
  -21.1094   25.4430   -9.5542 C   0  0  0  0  0  0
  -22.4182   24.9024  -10.1211 C   0  0  0  0  0  0
  -22.3052   24.6220  -11.6183 C   0  0  0  0  0  0
  -21.4217   22.4205  -11.3775 O   0  0  0  0  0  0
  -20.5566   19.4299  -11.7962 H   0  0  0  0  0  0
  1  2  1  0  0  0
  1 27  1  0  0  0
  2  3  2  0  0  0
  2 26  1  0  0  0
  3  4  1  0  0  0
  3 17  1  0  0  0
  4  5  2  0  0  0
  5  6  1  0  0  0
  6  7  2  0  0  0
  6 16  1  0  0  0
  7  8  1  0  0  0
  7 10  1  0  0  0
  8  9  3  0  0  0
 10 11  2  0  0  0
 10 15  1  0  0  0
 11 12  1  0  0  0
 11 16  1  0  0  0
 12 13  1  0  0  0
 13 14  1  0  0  0
 14 15  1  0  0  0
 17 18  2  0  0  0
 17 19  1  0  0  0
 19 20  1  0  0  0
 20 21  1  0  0  0
 20 25  1  0  0  0
 20 26  1  0  0  0
 21 22  1  0  0  0
 22 23  1  0  0  0
 23 24  1  0  0  0
 24 25  1  0  0  0
M  END
>  <CHROM.0>
-65.85673606,-75.26114810,-163.96941770,66.02461077,-29.58302723,62.87257332
-155.70027865,-162.30277783

>  <CHROM.1>
0.72695279,-176.71625286,6.93258401,-19.75310286,20.28339265,-13.95281312
2.60643775,1.19761364,-0.37427599

>  <Name>
F1362-0047

>  <RI>
2.51232e+07

>  <Rbt.Current_Directory>
/home/adria/Escritorio/rDock_CMTR_LC/2pxcA_model/inputs_sah

>  <Rbt.Executable>
rbdock ($Id: //depot/dev/client3/rdock/2013.1/src/exe/rbdock.cxx#4 $)

>  <Rbt.Library>
libRbt.so (2013.1, Build901 2013/11/27)

>  <Rbt.Parameter_File>
/home/adria/Escritorio/rDock_2013.1_src/data/scripts/dock.prm

>  <Rbt.Receptor>
sah_rdock.prm

>  <SCORE>
-38.5225

>  <SCORE.INTER>
-13.3994

>  <SCORE.INTER.CONST>
1

>  <SCORE.INTER.POLAR>
-0.524805

>  <SCORE.INTER.REPUL>
0

>  <SCORE.INTER.ROT>
2

>  <SCORE.INTER.VDW>
-19.0151

>  <SCORE.INTER.norm>
-0.515362

>  <SCORE.INTRA>
-17.5772

>  <SCORE.INTRA.DIHEDRAL>
-42.8747

>  <SCORE.INTRA.DIHEDRAL.0>
43.3921

>  <SCORE.INTRA.POLAR>
0.606078

>  <SCORE.INTRA.POLAR.0>
-0.879016

>  <SCORE.INTRA.REPUL>
0

>  <SCORE.INTRA.REPUL.0>
0

>  <SCORE.INTRA.VDW>
1.79946

>  <SCORE.INTRA.VDW.0>
-0.206451

>  <SCORE.INTRA.norm>
-0.676047

>  <SCORE.RESTR>
0

>  <SCORE.RESTR.CAVITY>
0

>  <SCORE.RESTR.norm>
0

>  <SCORE.SYSTEM>
-7.54586

>  <SCORE.SYSTEM.CONST>
0

>  <SCORE.SYSTEM.DIHEDRAL>
7.44612

>  <SCORE.SYSTEM.POLAR>
-4.10829

>  <SCORE.SYSTEM.REPUL>
0.042321

>  <SCORE.SYSTEM.VDW>
2.48766

>  <SCORE.SYSTEM.norm>
-0.290226

>  <SCORE.heavy>
26

>  <SCORE.norm>
-1.48163

$$$$
F1362-0047
  rDOCK(R)          3D
libRbt.so/2013.1/901 2013/11/27
 27 30  0  0  0  0  0  0  0  0999 V2000
  -17.9377   19.6862  -17.3541 O   0  0  0  0  0  0
  -17.9712   18.4352  -16.7667 C   0  0  0  0  0  0
  -18.5475   18.2063  -15.5756 C   0  0  0  0  0  0
  -19.2014   19.2923  -14.7976 C   0  0  0  0  0  0
  -19.9225   19.0733  -13.7396 N   0  0  0  0  0  0
  -20.4230   20.1928  -13.1396 C   0  0  0  0  0  0
  -20.2767   21.5333  -13.4564 C   0  0  0  0  0  0
  -19.4736   21.9719  -14.5568 C   0  0  0  0  0  0
  -18.8007   22.3231  -15.4359 N   0  0  0  0  0  0
  -21.0039   22.4032  -12.5806 C   0  0  0  0  0  0
  -21.7215   21.6823  -11.6472 C   0  0  0  0  0  0
  -22.6037   22.2750  -10.5894 C   0  0  0  0  0  0
  -22.9233   23.7428  -10.9176 C   0  0  0  0  0  0
  -21.6719   24.5078  -11.3698 C   0  0  0  0  0  0
  -21.0680   23.9029  -12.6464 C   0  0  0  0  0  0
  -21.4877   20.0056  -11.7950 S   0  0  0  0  0  0
  -18.5743   16.8406  -15.0462 C   0  0  0  0  0  0
  -19.1415   16.5824  -13.9911 O   0  0  0  0  0  0
  -18.0055   15.8770  -15.7904 O   0  0  0  0  0  0
  -17.0798   16.2338  -16.8242 C   0  0  0  0  0  0
  -15.6614   16.2946  -16.2271 C   0  0  0  0  0  0
  -14.5805   16.4173  -17.3007 C   0  0  0  0  0  0
  -14.6823   15.2948  -18.3292 C   0  0  0  0  0  0
  -16.0765   15.2166  -18.9425 C   0  0  0  0  0  0
  -17.1548   15.1039  -17.8665 C   0  0  0  0  0  0
  -17.3713   17.4509  -17.5062 O   0  0  0  0  0  0
  -17.5281   19.6130  -18.2426 H   0  0  0  0  0  0
  1  2  1  0  0  0
  1 27  1  0  0  0
  2  3  2  0  0  0
  2 26  1  0  0  0
  3  4  1  0  0  0
  3 17  1  0  0  0
  4  5  2  0  0  0
  5  6  1  0  0  0
  6  7  2  0  0  0
  6 16  1  0  0  0
  7  8  1  0  0  0
  7 10  1  0  0  0
  8  9  3  0  0  0
 10 11  2  0  0  0
 10 15  1  0  0  0
 11 12  1  0  0  0
 11 16  1  0  0  0
 12 13  1  0  0  0
 13 14  1  0  0  0
 14 15  1  0  0  0
 17 18  2  0  0  0
 17 19  1  0  0  0
 19 20  1  0  0  0
 20 21  1  0  0  0
 20 25  1  0  0  0
 20 26  1  0  0  0
 21 22  1  0  0  0
 22 23  1  0  0  0
 23 24  1  0  0  0
 24 25  1  0  0  0
M  END
>  <CHROM.0>
-64.60647767,67.54163686,111.22234302,-61.66484642,-31.14694395,-60.93698977
-156.86058001,-162.20351063

>  <CHROM.1>
-176.02360333,170.22639230,-1.08497313,-19.05105376,19.22680848,-14.68931382
-0.58780639,0.88637823,-0.14781082

>  <Name>
F1362-0047

>  <RI>
2.51232e+07

>  <Rbt.Current_Directory>
/home/adria/Escritorio/rDock_CMTR_LC/2pxcA_model/inputs_sah

>  <Rbt.Executable>
rbdock ($Id: //depot/dev/client3/rdock/2013.1/src/exe/rbdock.cxx#4 $)

>  <Rbt.Library>
libRbt.so (2013.1, Build901 2013/11/27)

>  <Rbt.Parameter_File>
/home/adria/Escritorio/rDock_2013.1_src/data/scripts/dock.prm

>  <Rbt.Receptor>
sah_rdock.prm

>  <SCORE>
-39.4051

>  <SCORE.INTER>
-15.0325

>  <SCORE.INTER.CONST>
1

>  <SCORE.INTER.POLAR>
-0.645718

>  <SCORE.INTER.REPUL>
0.0793569

>  <SCORE.INTER.ROT>
2

>  <SCORE.INTER.VDW>
-20.6339

>  <SCORE.INTER.norm>
-0.578174

>  <SCORE.INTRA>
-17.3597

>  <SCORE.INTRA.DIHEDRAL>
-42.8723

>  <SCORE.INTRA.DIHEDRAL.0>
43.3921

>  <SCORE.INTRA.POLAR>
0.879016

>  <SCORE.INTRA.POLAR.0>
-0.879016

>  <SCORE.INTRA.REPUL>
0

>  <SCORE.INTRA.REPUL.0>
0

>  <SCORE.INTRA.VDW>
1.08781

>  <SCORE.INTRA.VDW.0>
-0.206451

>  <SCORE.INTRA.norm>
-0.66768

>  <SCORE.RESTR>
0

>  <SCORE.RESTR.CAVITY>
0

>  <SCORE.RESTR.norm>
0

>  <SCORE.SYSTEM>
-7.01286

>  <SCORE.SYSTEM.CONST>
0

>  <SCORE.SYSTEM.DIHEDRAL>
8.80989

>  <SCORE.SYSTEM.POLAR>
-4.35323

>  <SCORE.SYSTEM.VDW>
3.38317

>  <SCORE.SYSTEM.norm>
-0.269725

>  <SCORE.heavy>
26

>  <SCORE.norm>
-1.51558

$$$$
F1362-0047
  rDOCK(R)          3D
libRbt.so/2013.1/901 2013/11/27
 27 30  0  0  0  0  0  0  0  0999 V2000
  -19.4298   22.4521  -15.1931 O   0  0  0  0  0  0
  -20.0377   22.1674  -13.9845 C   0  0  0  0  0  0
  -20.1698   20.9167  -13.5138 C   0  0  0  0  0  0
  -19.6625   19.7371  -14.2643 C   0  0  0  0  0  0
  -19.0811   19.8280  -15.4224 N   0  0  0  0  0  0
  -18.6573   18.6428  -15.9508 C   0  0  0  0  0  0
  -18.8140   17.3422  -15.5009 C   0  0  0  0  0  0
  -19.4904   17.0366  -14.2772 C   0  0  0  0  0  0
  -20.0185   16.7967  -13.2709 N   0  0  0  0  0  0
  -18.2387   16.3674  -16.3792 C   0  0  0  0  0  0
  -17.6994   16.9656  -17.5005 C   0  0  0  0  0  0
  -17.0327   16.2402  -18.6310 C   0  0  0  0  0  0
  -17.3728   14.7414  -18.5817 C   0  0  0  0  0  0
  -17.2601   14.1814  -17.1570 C   0  0  0  0  0  0
  -18.2366   14.8762  -16.1958 C   0  0  0  0  0  0
  -17.8428   18.6587  -17.4717 S   0  0  0  0  0  0
  -20.7902   20.7092  -12.2030 C   0  0  0  0  0  0
  -20.8760   19.5887  -11.7142 O   0  0  0  0  0  0
  -21.2060   21.7988  -11.5355 O   0  0  0  0  0  0
  -21.4018   23.0303  -12.2413 C   0  0  0  0  0  0
  -22.8479   23.0805  -12.7689 C   0  0  0  0  0  0
  -23.2239   24.4587  -13.3121 C   0  0  0  0  0  0
  -22.9931   25.5524  -12.2736 C   0  0  0  0  0  0
  -21.5649   25.5301  -11.7389 C   0  0  0  0  0  0
  -21.1893   24.1489  -11.2058 C   0  0  0  0  0  0
  -20.4878   23.2700  -13.3084 O   0  0  0  0  0  0
  -19.1192   21.6157  -15.6012 H   0  0  0  0  0  0
  1  2  1  0  0  0
  1 27  1  0  0  0
  2  3  2  0  0  0
  2 26  1  0  0  0
  3  4  1  0  0  0
  3 17  1  0  0  0
  4  5  2  0  0  0
  5  6  1  0  0  0
  6  7  2  0  0  0
  6 16  1  0  0  0
  7  8  1  0  0  0
  7 10  1  0  0  0
  8  9  3  0  0  0
 10 11  2  0  0  0
 10 15  1  0  0  0
 11 12  1  0  0  0
 11 16  1  0  0  0
 12 13  1  0  0  0
 13 14  1  0  0  0
 14 15  1  0  0  0
 17 18  2  0  0  0
 17 19  1  0  0  0
 19 20  1  0  0  0
 20 21  1  0  0  0
 20 25  1  0  0  0
 20 26  1  0  0  0
 21 22  1  0  0  0
 22 23  1  0  0  0
 23 24  1  0  0  0
 24 25  1  0  0  0
M  END
>  <CHROM.0>
-61.26269654,-168.72809987,-7.58882950,63.36224077,-30.43750285,-179.37241931
82.06266327,-160.71709401

>  <CHROM.1>
-1.07876175,-1.05456923,4.56456471,-19.76539564,19.94403272,-14.55586371
-2.56271254,-1.07231332,2.77103575

>  <Name>
F1362-0047

>  <RI>
2.51232e+07

>  <Rbt.Current_Directory>
/home/adria/Escritorio/rDock_CMTR_LC/2pxcA_model/inputs_sah

>  <Rbt.Executable>
rbdock ($Id: //depot/dev/client3/rdock/2013.1/src/exe/rbdock.cxx#4 $)

>  <Rbt.Library>
libRbt.so (2013.1, Build901 2013/11/27)

>  <Rbt.Parameter_File>
/home/adria/Escritorio/rDock_2013.1_src/data/scripts/dock.prm

>  <Rbt.Receptor>
sah_rdock.prm

>  <SCORE>
-45.2987

>  <SCORE.INTER>
-19.3388

>  <SCORE.INTER.CONST>
1

>  <SCORE.INTER.POLAR>
-0.821253

>  <SCORE.INTER.REPUL>
0

>  <SCORE.INTER.ROT>
2

>  <SCORE.INTER.VDW>
-23.9466

>  <SCORE.INTER.norm>
-0.743801

>  <SCORE.INTRA>
-19.8744

>  <SCORE.INTRA.DIHEDRAL>
-43.2144

>  <SCORE.INTRA.DIHEDRAL.0>
43.3921

>  <SCORE.INTRA.POLAR>
-0.00948192

>  <SCORE.INTRA.POLAR.0>
-0.879016

>  <SCORE.INTRA.REPUL>
0

>  <SCORE.INTRA.REPUL.0>
0

>  <SCORE.INTRA.VDW>
1.76504

>  <SCORE.INTRA.VDW.0>
-0.206451

>  <SCORE.INTRA.norm>
-0.764401

>  <SCORE.RESTR>
0

>  <SCORE.RESTR.CAVITY>
0

>  <SCORE.RESTR.norm>
0

>  <SCORE.SYSTEM>
-6.08548

>  <SCORE.SYSTEM.CONST>
0

>  <SCORE.SYSTEM.DIHEDRAL>
9.24769

>  <SCORE.SYSTEM.POLAR>
-4.25652

>  <SCORE.SYSTEM.VDW>
3.76283

>  <SCORE.SYSTEM.norm>
-0.234057

>  <SCORE.heavy>
26

>  <SCORE.norm>
-1.74226

$$$$
F1362-0047
  rDOCK(R)          3D
libRbt.so/2013.1/901 2013/11/27
 27 30  0  0  0  0  0  0  0  0999 V2000
  -19.3210   22.4232  -15.2548 O   0  0  0  0  0  0
  -19.9429   22.1110  -14.0602 C   0  0  0  0  0  0
  -20.0569   20.8521  -13.6070 C   0  0  0  0  0  0
  -19.5127   19.6927  -14.3631 C   0  0  0  0  0  0
  -18.8337   19.8174  -15.4636 N   0  0  0  0  0  0
  -18.3917   18.6451  -16.0058 C   0  0  0  0  0  0
  -18.5906   17.3322  -15.6116 C   0  0  0  0  0  0
  -19.3445   16.9945  -14.4429 C   0  0  0  0  0  0
  -19.9363   16.7278  -13.4798 N   0  0  0  0  0  0
  -17.9733   16.3802  -16.4863 C   0  0  0  0  0  0
  -17.3592   17.0087  -17.5511 C   0  0  0  0  0  0
  -16.6324   16.3130  -18.6631 C   0  0  0  0  0  0
  -16.9919   14.8182  -18.6866 C   0  0  0  0  0  0
  -16.9736   14.2087  -17.2780 C   0  0  0  0  0  0
  -17.9995   14.8837  -16.3549 C   0  0  0  0  0  0
  -17.4849   18.7016  -17.4725 S   0  0  0  0  0  0
  -20.6945   20.6155  -12.3095 C   0  0  0  0  0  0
  -20.7651   19.4874  -11.8359 O   0  0  0  0  0  0
  -21.1439   21.6879  -11.6359 O   0  0  0  0  0  0
  -21.3534   22.9238  -12.3300 C   0  0  0  0  0  0
  -22.7913   22.9508  -12.8813 C   0  0  0  0  0  0
  -23.1867   24.3277  -13.4141 C   0  0  0  0  0  0
  -22.9961   25.4129  -12.3586 C   0  0  0  0  0  0
  -21.5768   25.4133  -11.8001 C   0  0  0  0  0  0
  -21.1815   24.0335  -11.2775 C   0  0  0  0  0  0
  -20.4270   23.1955  -13.3785 O   0  0  0  0  0  0
  -19.0088   21.5961  -15.6801 H   0  0  0  0  0  0
  1  2  1  0  0  0
  1 27  1  0  0  0
  2  3  2  0  0  0
  2 26  1  0  0  0
  3  4  1  0  0  0
  3 17  1  0  0  0
  4  5  2  0  0  0
  5  6  1  0  0  0
  6  7  2  0  0  0
  6 16  1  0  0  0
  7  8  1  0  0  0
  7 10  1  0  0  0
  8  9  3  0  0  0
 10 11  2  0  0  0
 10 15  1  0  0  0
 11 12  1  0  0  0
 11 16  1  0  0  0
 12 13  1  0  0  0
 13 14  1  0  0  0
 14 15  1  0  0  0
 17 18  2  0  0  0
 17 19  1  0  0  0
 19 20  1  0  0  0
 20 21  1  0  0  0
 20 25  1  0  0  0
 20 26  1  0  0  0
 21 22  1  0  0  0
 22 23  1  0  0  0
 23 24  1  0  0  0
 24 25  1  0  0  0
M  END
>  <CHROM.0>
-177.10944556,64.26572510,-167.17354848,62.49185404,-31.67147250,63.05320168
83.37266480,-162.64104702

>  <CHROM.1>
0.51860549,3.84994106,3.06169656,-19.59818599,19.90253453,-14.64371845,-2.53731714
-1.02339806,2.82036743

>  <Name>
F1362-0047

>  <RI>
2.51232e+07

>  <Rbt.Current_Directory>
/home/adria/Escritorio/rDock_CMTR_LC/2pxcA_model/inputs_sah

>  <Rbt.Executable>
rbdock ($Id: //depot/dev/client3/rdock/2013.1/src/exe/rbdock.cxx#4 $)

>  <Rbt.Library>
libRbt.so (2013.1, Build901 2013/11/27)

>  <Rbt.Parameter_File>
/home/adria/Escritorio/rDock_2013.1_src/data/scripts/dock.prm

>  <Rbt.Receptor>
sah_rdock.prm

>  <SCORE>
-45.5022

>  <SCORE.INTER>
-19.0525

>  <SCORE.INTER.CONST>
1

>  <SCORE.INTER.POLAR>
-0.824621

>  <SCORE.INTER.REPUL>
0

>  <SCORE.INTER.ROT>
2

>  <SCORE.INTER.VDW>
-23.6488

>  <SCORE.INTER.norm>
-0.73279

>  <SCORE.INTRA>
-19.86

>  <SCORE.INTRA.DIHEDRAL>
-43.2347

>  <SCORE.INTRA.DIHEDRAL.0>
43.3921

>  <SCORE.INTRA.POLAR>
-0.00630853

>  <SCORE.INTRA.POLAR.0>
-0.879016

>  <SCORE.INTRA.REPUL>
0

>  <SCORE.INTRA.REPUL.0>
0

>  <SCORE.INTRA.VDW>
1.77879

>  <SCORE.INTRA.VDW.0>
-0.206451

>  <SCORE.INTRA.norm>
-0.763847

>  <SCORE.RESTR>
0

>  <SCORE.RESTR.CAVITY>
0

>  <SCORE.RESTR.norm>
0

>  <SCORE.SYSTEM>
-6.58962

>  <SCORE.SYSTEM.CONST>
0

>  <SCORE.SYSTEM.DIHEDRAL>
5.47571

>  <SCORE.SYSTEM.POLAR>
-3.60408

>  <SCORE.SYSTEM.VDW>
2.92641

>  <SCORE.SYSTEM.norm>
-0.253447

>  <SCORE.heavy>
26

>  <SCORE.norm>
-1.75008

$$$$
