F3406-0445
  rDOCK(R)          3D
libRbt.so/2013.1/901 2013/11/27
 30 33  0  0  0  0  0  0  0  0999 V2000
  -14.2291   17.9437  -17.4196 C   0  0  0  0  0  0
  -14.8138   19.3119  -17.1357 C   0  0  0  0  0  0
  -16.1180   19.2008  -16.5552 O   0  0  0  0  0  0
  -16.7531   20.3735  -16.2847 C   0  0  0  0  0  0
  -16.3495   21.4978  -16.5080 O   0  0  0  0  0  0
  -17.9864   20.0352  -15.5574 C   0  0  0  0  0  0
  -18.3819   18.7552  -15.3703 C   0  0  0  0  0  0
  -17.7611   17.6203  -15.8836 N   0  0  0  0  0  0
  -18.2814   16.2620  -15.9547 C   0  0  0  0  0  0
  -17.2683   15.3530  -16.6236 C   0  0  0  0  0  0
  -16.7545   15.6318  -17.9044 C   0  0  0  0  0  0
  -15.8092   14.7695  -18.4337 C   0  0  0  0  0  0
  -15.3787   13.6555  -17.7526 C   0  0  0  0  0  0
  -14.4352   12.9540  -18.4350 O   0  0  0  0  0  0
  -14.2804   13.7797  -19.6057 C   0  0  0  0  0  0
  -15.1914   14.9010  -19.6405 O   0  0  0  0  0  0
  -15.8756   13.3323  -16.5121 C   0  0  0  0  0  0
  -16.8260   14.1894  -15.9498 C   0  0  0  0  0  0
  -19.6374   18.5384  -14.5803 C   0  0  0  0  0  0
  -20.3681   19.6485  -14.1166 C   0  0  0  0  0  0
  -19.9250   20.9367  -14.4021 N   0  3  0  0  0  0
  -20.4427   21.7489  -14.0910 H   0  0  0  0  0  0
  -18.7781   21.1992  -15.0859 C   0  0  0  0  0  0
  -18.4382   22.3606  -15.2969 O   0  0  0  0  0  0
  -21.5254   19.5102  -13.3464 C   0  0  0  0  0  0
  -21.9639   18.2386  -13.0041 C   0  0  0  0  0  0
  -23.3702   18.0577  -12.0306 Cl  0  0  0  0  0  0
  -21.2601   17.1162  -13.4334 C   0  0  0  0  0  0
  -20.1061   17.2647  -14.2179 C   0  0  0  0  0  0
  -16.9331   17.7945  -16.4495 H   0  0  0  0  0  0
  1  2  1  0  0  0
  2  3  1  0  0  0
  3  4  1  0  0  0
  4  5  2  0  0  0
  4  6  1  0  0  0
  6  7  2  0  0  0
  6 23  1  0  0  0
  7  8  1  0  0  0
  7 19  1  0  0  0
  8  9  1  0  0  0
  8 30  1  0  0  0
  9 10  1  0  0  0
 10 11  2  0  0  0
 10 18  1  0  0  0
 11 12  1  0  0  0
 12 13  2  0  0  0
 12 16  1  0  0  0
 13 14  1  0  0  0
 13 17  1  0  0  0
 14 15  1  0  0  0
 15 16  1  0  0  0
 17 18  2  0  0  0
 19 20  2  0  0  0
 19 29  1  0  0  0
 20 21  1  0  0  0
 20 25  1  0  0  0
 21 22  1  0  0  0
 21 23  1  0  0  0
 23 24  2  0  0  0
 25 26  2  0  0  0
 26 27  1  0  0  0
 26 28  1  0  0  0
 28 29  2  0  0  0
M  END
>  <CHROM.0>
-64.58688728,62.59317702,-128.65205401,-60.60301839,28.74001105,77.07109313
-156.78586989,-163.31095750

>  <CHROM.1>
-178.60860635,1.78393554,-5.92358885,-165.91780093,178.70141137,-55.66535028
-17.99707064,17.63627596,-15.81362021,-0.58825106,0.60893250,0.10597703

>  <Name>
F3406-0445

>  <RI>
4.09296e+07

>  <Rbt.Current_Directory>
/home/adria/Escritorio/rDock_CMTR_LC/2pxcA_model/inputs_sah

>  <Rbt.Executable>
rbdock ($Id: //depot/dev/client3/rdock/2013.1/src/exe/rbdock.cxx#4 $)

>  <Rbt.Library>
libRbt.so (2013.1, Build901 2013/11/27)

>  <Rbt.Parameter_File>
/home/adria/Escritorio/rDock_2013.1_src/data/scripts/dock.prm

>  <Rbt.Receptor>
sah_rdock.prm

>  <SCORE>
-46.9179

>  <SCORE.INTER>
-13.746

>  <SCORE.INTER.CONST>
1

>  <SCORE.INTER.POLAR>
-0.901431

>  <SCORE.INTER.REPUL>
0

>  <SCORE.INTER.ROT>
6

>  <SCORE.INTER.VDW>
-22.0812

>  <SCORE.INTER.norm>
-0.49093

>  <SCORE.INTRA>
-38.8394

>  <SCORE.INTRA.DIHEDRAL>
-86.2944

>  <SCORE.INTRA.DIHEDRAL.0>
92.3122

>  <SCORE.INTRA.POLAR>
-0.492671

>  <SCORE.INTRA.POLAR.0>
0

>  <SCORE.INTRA.REPUL>
0

>  <SCORE.INTRA.REPUL.0>
0

>  <SCORE.INTRA.VDW>
5.98286

>  <SCORE.INTRA.VDW.0>
-2.56148

>  <SCORE.INTRA.norm>
-1.38712

>  <SCORE.RESTR>
0

>  <SCORE.RESTR.CAVITY>
0

>  <SCORE.RESTR.norm>
0

>  <SCORE.SYSTEM>
5.66757

>  <SCORE.SYSTEM.CONST>
0

>  <SCORE.SYSTEM.DIHEDRAL>
9.63684

>  <SCORE.SYSTEM.POLAR>
-4.03067

>  <SCORE.SYSTEM.VDW>
14.5534

>  <SCORE.SYSTEM.norm>
0.202413

>  <SCORE.heavy>
28

>  <SCORE.norm>
-1.67564

$$$$
F3406-0445
  rDOCK(R)          3D
libRbt.so/2013.1/901 2013/11/27
 30 33  0  0  0  0  0  0  0  0999 V2000
  -23.1107   17.1674  -15.4754 C   0  0  0  0  0  0
  -23.1432   18.6070  -15.9454 C   0  0  0  0  0  0
  -22.7755   19.4992  -14.8875 O   0  0  0  0  0  0
  -23.6709   19.6200  -13.8699 C   0  0  0  0  0  0
  -24.7186   19.0189  -13.7360 O   0  0  0  0  0  0
  -23.1919   20.7090  -13.0045 C   0  0  0  0  0  0
  -21.9773   21.2798  -13.1738 C   0  0  0  0  0  0
  -21.0066   20.8887  -14.0913 N   0  0  0  0  0  0
  -19.6137   21.3071  -14.1639 C   0  0  0  0  0  0
  -18.8699   20.4600  -15.1784 C   0  0  0  0  0  0
  -17.9583   19.4620  -14.7845 C   0  0  0  0  0  0
  -17.3428   18.7099  -15.7708 C   0  0  0  0  0  0
  -17.5872   18.9229  -17.1068 C   0  0  0  0  0  0
  -16.9009   18.0674  -17.9099 O   0  0  0  0  0  0
  -16.2316   17.2540  -16.9267 C   0  0  0  0  0  0
  -16.4594   17.6930  -15.5688 O   0  0  0  0  0  0
  -18.4488   19.9054  -17.5343 C   0  0  0  0  0  0
  -19.0903   20.6754  -16.5599 C   0  0  0  0  0  0
  -21.6190   22.4061  -12.2516 C   0  0  0  0  0  0
  -22.5164   22.7858  -11.2358 C   0  0  0  0  0  0
  -23.7234   22.1083  -11.0900 N   0  3  0  0  0  0
  -24.3768   22.3552  -10.3575 H   0  0  0  0  0  0
  -24.1200   21.1003  -11.9138 C   0  0  0  0  0  0
  -25.2032   20.5490  -11.7361 O   0  0  0  0  0  0
  -22.2541   23.8495  -10.3689 C   0  0  0  0  0  0
  -21.0810   24.5752  -10.5218 C   0  0  0  0  0  0
  -20.7624   25.9057   -9.4796 Cl  0  0  0  0  0  0
  -20.1745   24.2377  -11.5236 C   0  0  0  0  0  0
  -20.4404   23.1592  -12.3814 C   0  0  0  0  0  0
  -21.2411   20.0727  -14.6528 H   0  0  0  0  0  0
  1  2  1  0  0  0
  2  3  1  0  0  0
  3  4  1  0  0  0
  4  5  2  0  0  0
  4  6  1  0  0  0
  6  7  2  0  0  0
  6 23  1  0  0  0
  7  8  1  0  0  0
  7 19  1  0  0  0
  8  9  1  0  0  0
  8 30  1  0  0  0
  9 10  1  0  0  0
 10 11  2  0  0  0
 10 18  1  0  0  0
 11 12  1  0  0  0
 12 13  2  0  0  0
 12 16  1  0  0  0
 13 14  1  0  0  0
 13 17  1  0  0  0
 14 15  1  0  0  0
 15 16  1  0  0  0
 17 18  2  0  0  0
 19 20  2  0  0  0
 19 29  1  0  0  0
 20 21  1  0  0  0
 20 25  1  0  0  0
 21 22  1  0  0  0
 21 23  1  0  0  0
 23 24  2  0  0  0
 25 26  2  0  0  0
 26 27  1  0  0  0
 26 28  1  0  0  0
 28 29  2  0  0  0
M  END
>  <CHROM.0>
-62.93679430,64.66546217,-167.56531440,64.45997925,-30.59866029,-57.53164705
83.78295769,-159.96683971

>  <CHROM.1>
-69.75958715,3.04829042,-8.46968584,-168.39078412,170.74310630,-106.11940770
-20.87576663,20.90476376,-13.67243908,1.06656418,-0.25695986,-2.44207464

>  <Name>
F3406-0445

>  <RI>
4.09296e+07

>  <Rbt.Current_Directory>
/home/adria/Escritorio/rDock_CMTR_LC/2pxcA_model/inputs_sah

>  <Rbt.Executable>
rbdock ($Id: //depot/dev/client3/rdock/2013.1/src/exe/rbdock.cxx#4 $)

>  <Rbt.Library>
libRbt.so (2013.1, Build901 2013/11/27)

>  <Rbt.Parameter_File>
/home/adria/Escritorio/rDock_2013.1_src/data/scripts/dock.prm

>  <Rbt.Receptor>
sah_rdock.prm

>  <SCORE>
-51.9284

>  <SCORE.INTER>
-7.30927

>  <SCORE.INTER.CONST>
1

>  <SCORE.INTER.POLAR>
0

>  <SCORE.INTER.REPUL>
0

>  <SCORE.INTER.ROT>
6

>  <SCORE.INTER.VDW>
-18.7093

>  <SCORE.INTER.norm>
-0.261045

>  <SCORE.INTRA>
-37.5909

>  <SCORE.INTRA.DIHEDRAL>
-86.6826

>  <SCORE.INTRA.DIHEDRAL.0>
92.3122

>  <SCORE.INTRA.POLAR>
-0.494503

>  <SCORE.INTRA.POLAR.0>
0

>  <SCORE.INTRA.REPUL>
0

>  <SCORE.INTRA.REPUL.0>
0

>  <SCORE.INTRA.VDW>
7.43168

>  <SCORE.INTRA.VDW.0>
-2.56148

>  <SCORE.INTRA.norm>
-1.34253

>  <SCORE.RESTR>
0

>  <SCORE.RESTR.CAVITY>
0

>  <SCORE.RESTR.norm>
0

>  <SCORE.SYSTEM>
-7.02825

>  <SCORE.SYSTEM.CONST>
0

>  <SCORE.SYSTEM.DIHEDRAL>
5.90539

>  <SCORE.SYSTEM.POLAR>
-3.65365

>  <SCORE.SYSTEM.VDW>
2.44145

>  <SCORE.SYSTEM.norm>
-0.251009

>  <SCORE.heavy>
28

>  <SCORE.norm>
-1.85459

$$$$
F3406-0445
  rDOCK(R)          3D
libRbt.so/2013.1/901 2013/11/27
 30 33  0  0  0  0  0  0  0  0999 V2000
  -23.2781   20.3468  -10.0237 C   0  0  0  0  0  0
  -23.6522   19.5178  -11.2350 C   0  0  0  0  0  0
  -22.5531   19.4197  -12.1474 O   0  0  0  0  0  0
  -21.5143   18.6362  -11.7487 C   0  0  0  0  0  0
  -21.3339   18.1575  -10.6464 O   0  0  0  0  0  0
  -20.5736   18.5647  -12.8776 C   0  0  0  0  0  0
  -19.7319   19.5806  -13.1769 C   0  0  0  0  0  0
  -19.6865   20.8217  -12.5488 N   0  0  0  0  0  0
  -20.4311   21.2686  -11.3798 C   0  0  0  0  0  0
  -20.7893   22.7353  -11.5226 C   0  0  0  0  0  0
  -21.9607   23.1510  -12.1838 C   0  0  0  0  0  0
  -22.2330   24.5073  -12.2450 C   0  0  0  0  0  0
  -21.3898   25.4438  -11.6955 C   0  0  0  0  0  0
  -21.8473   26.7152  -11.8448 O   0  0  0  0  0  0
  -23.1032   26.4730  -12.5083 C   0  0  0  0  0  0
  -23.3275   25.0796  -12.8194 O   0  0  0  0  0  0
  -20.2225   25.0816  -11.0659 C   0  0  0  0  0  0
  -19.9257   23.7182  -10.9827 C   0  0  0  0  0  0
  -18.7947   19.3724  -14.3282 C   0  0  0  0  0  0
  -18.8575   18.1773  -15.0692 C   0  0  0  0  0  0
  -19.7935   17.2034  -14.7334 N   0  3  0  0  0  0
  -19.8656   16.3431  -15.2616 H   0  0  0  0  0  0
  -20.6490   17.3188  -13.6814 C   0  0  0  0  0  0
  -21.4457   16.4175  -13.4330 O   0  0  0  0  0  0
  -17.9877   17.9111  -16.1295 C   0  0  0  0  0  0
  -17.0117   18.8423  -16.4558 C   0  0  0  0  0  0
  -15.9161   18.5113  -17.7397 Cl  0  0  0  0  0  0
  -16.9099   20.0308  -15.7373 C   0  0  0  0  0  0
  -17.7966   20.2954  -14.6821 C   0  0  0  0  0  0
  -18.9043   21.4164  -12.8145 H   0  0  0  0  0  0
  1  2  1  0  0  0
  2  3  1  0  0  0
  3  4  1  0  0  0
  4  5  2  0  0  0
  4  6  1  0  0  0
  6  7  2  0  0  0
  6 23  1  0  0  0
  7  8  1  0  0  0
  7 19  1  0  0  0
  8  9  1  0  0  0
  8 30  1  0  0  0
  9 10  1  0  0  0
 10 11  2  0  0  0
 10 18  1  0  0  0
 11 12  1  0  0  0
 12 13  2  0  0  0
 12 16  1  0  0  0
 13 14  1  0  0  0
 13 17  1  0  0  0
 14 15  1  0  0  0
 15 16  1  0  0  0
 17 18  2  0  0  0
 19 20  2  0  0  0
 19 29  1  0  0  0
 20 21  1  0  0  0
 20 25  1  0  0  0
 21 22  1  0  0  0
 21 23  1  0  0  0
 23 24  2  0  0  0
 25 26  2  0  0  0
 26 27  1  0  0  0
 26 28  1  0  0  0
 28 29  2  0  0  0
M  END
>  <CHROM.0>
-63.35003786,68.40798189,-164.19425990,62.58303857,-30.45176528,-179.05927072
-77.13916989,-52.93561194

>  <CHROM.1>
71.62285263,-10.53103992,77.39360649,5.72441084,-144.47509257,87.06292317
-20.28890195,20.71800196,-13.23218426,2.31764312,0.74397212,0.03933975

>  <Name>
F3406-0445

>  <RI>
4.09296e+07

>  <Rbt.Current_Directory>
/home/adria/Escritorio/rDock_CMTR_LC/2pxcA_model/inputs_sah

>  <Rbt.Executable>
rbdock ($Id: //depot/dev/client3/rdock/2013.1/src/exe/rbdock.cxx#4 $)

>  <Rbt.Library>
libRbt.so (2013.1, Build901 2013/11/27)

>  <Rbt.Parameter_File>
/home/adria/Escritorio/rDock_2013.1_src/data/scripts/dock.prm

>  <Rbt.Receptor>
sah_rdock.prm

>  <SCORE>
-59.3164

>  <SCORE.INTER>
-21.3456

>  <SCORE.INTER.CONST>
1

>  <SCORE.INTER.POLAR>
-3.30537

>  <SCORE.INTER.REPUL>
0

>  <SCORE.INTER.ROT>
6

>  <SCORE.INTER.VDW>
-21.5074

>  <SCORE.INTER.norm>
-0.762344

>  <SCORE.INTRA>
-34.9242

>  <SCORE.INTRA.DIHEDRAL>
-74.6226

>  <SCORE.INTRA.DIHEDRAL.0>
92.3122

>  <SCORE.INTRA.POLAR>
0

>  <SCORE.INTRA.POLAR.0>
0

>  <SCORE.INTRA.REPUL>
0

>  <SCORE.INTRA.REPUL.0>
0

>  <SCORE.INTRA.VDW>
2.38709

>  <SCORE.INTRA.VDW.0>
-2.56148

>  <SCORE.INTRA.norm>
-1.24729

>  <SCORE.RESTR>
0

>  <SCORE.RESTR.CAVITY>
0

>  <SCORE.RESTR.norm>
0

>  <SCORE.SYSTEM>
-3.04653

>  <SCORE.SYSTEM.CONST>
0

>  <SCORE.SYSTEM.DIHEDRAL>
8.26358

>  <SCORE.SYSTEM.POLAR>
-2.63634

>  <SCORE.SYSTEM.REPUL>
0.00425092

>  <SCORE.SYSTEM.VDW>
1.76399

>  <SCORE.SYSTEM.norm>
-0.108805

>  <SCORE.heavy>
28

>  <SCORE.norm>
-2.11844

$$$$
F3406-0445
  rDOCK(R)          3D
libRbt.so/2013.1/901 2013/11/27
 30 33  0  0  0  0  0  0  0  0999 V2000
  -23.6976   22.8710   -9.1072 C   0  0  0  0  0  0
  -23.9485   21.3792   -9.0300 C   0  0  0  0  0  0
  -23.1802   20.6794  -10.0150 O   0  0  0  0  0  0
  -23.3530   19.3303  -10.0593 C   0  0  0  0  0  0
  -24.0107   18.6470   -9.2994 O   0  0  0  0  0  0
  -22.4950   18.8236  -11.1416 C   0  0  0  0  0  0
  -21.4111   19.5052  -11.5779 C   0  0  0  0  0  0
  -21.0083   20.7675  -11.1519 N   0  0  0  0  0  0
  -20.0522   21.6686  -11.7801 C   0  0  0  0  0  0
  -20.5751   23.0916  -11.7366 C   0  0  0  0  0  0
  -21.6014   23.5305  -12.5948 C   0  0  0  0  0  0
  -22.0453   24.8363  -12.4719 C   0  0  0  0  0  0
  -21.5039   25.7051  -11.5542 C   0  0  0  0  0  0
  -22.0921   26.9304  -11.5796 O   0  0  0  0  0  0
  -23.1033   26.7226  -12.5849 C   0  0  0  0  0  0
  -23.0413   25.4155  -13.1983 O   0  0  0  0  0  0
  -20.4818   25.3247  -10.7171 C   0  0  0  0  0  0
  -20.0186   24.0095  -10.8140 C   0  0  0  0  0  0
  -20.5949   18.8665  -12.6610 C   0  0  0  0  0  0
  -21.0041   17.6349  -13.2061 C   0  0  0  0  0  0
  -22.1661   17.0250  -12.7424 N   0  3  0  0  0  0
  -22.4865   16.1468  -13.1303 H   0  0  0  0  0  0
  -22.9319   17.5375  -11.7410 C   0  0  0  0  0  0
  -23.9420   16.9440  -11.3718 O   0  0  0  0  0  0
  -20.2668   16.9742  -14.1918 C   0  0  0  0  0  0
  -19.0780   17.5340  -14.6385 C   0  0  0  0  0  0
  -18.1469   16.7140  -15.8296 Cl  0  0  0  0  0  0
  -18.6336   18.7449  -14.1137 C   0  0  0  0  0  0
  -19.3878   19.4079  -13.1333 C   0  0  0  0  0  0
  -21.5894   21.1903  -10.4311 H   0  0  0  0  0  0
  1  2  1  0  0  0
  2  3  1  0  0  0
  3  4  1  0  0  0
  4  5  2  0  0  0
  4  6  1  0  0  0
  6  7  2  0  0  0
  6 23  1  0  0  0
  7  8  1  0  0  0
  7 19  1  0  0  0
  8  9  1  0  0  0
  8 30  1  0  0  0
  9 10  1  0  0  0
 10 11  2  0  0  0
 10 18  1  0  0  0
 11 12  1  0  0  0
 12 13  2  0  0  0
 12 16  1  0  0  0
 13 14  1  0  0  0
 13 17  1  0  0  0
 14 15  1  0  0  0
 15 16  1  0  0  0
 17 18  2  0  0  0
 19 20  2  0  0  0
 19 29  1  0  0  0
 20 21  1  0  0  0
 20 25  1  0  0  0
 21 22  1  0  0  0
 21 23  1  0  0  0
 23 24  2  0  0  0
 25 26  2  0  0  0
 26 27  1  0  0  0
 26 28  1  0  0  0
 28 29  2  0  0  0
M  END
>  <CHROM.0>
170.43609453,-167.82335498,-45.91885088,151.52543887,168.36598232,-62.07991600
81.94519307,-161.05123851

>  <CHROM.1>
-178.41746473,-5.60301946,23.11102555,-164.74651552,137.98160436,-75.30670970
-21.45581477,20.76448891,-12.09260102,1.93289507,0.77316306,0.05488554

>  <Name>
F3406-0445

>  <RI>
4.09296e+07

>  <Rbt.Current_Directory>
/home/adria/Escritorio/rDock_CMTR_LC/2pxcA_model/inputs_sah

>  <Rbt.Executable>
rbdock ($Id: //depot/dev/client3/rdock/2013.1/src/exe/rbdock.cxx#4 $)

>  <Rbt.Library>
libRbt.so (2013.1, Build901 2013/11/27)

>  <Rbt.Parameter_File>
/home/adria/Escritorio/rDock_2013.1_src/data/scripts/dock.prm

>  <Rbt.Receptor>
sah_rdock.prm

>  <SCORE>
-55.9208

>  <SCORE.INTER>
-18.8782

>  <SCORE.INTER.CONST>
1

>  <SCORE.INTER.POLAR>
-1.55356

>  <SCORE.INTER.REPUL>
0.000449152

>  <SCORE.INTER.ROT>
6

>  <SCORE.INTER.VDW>
-24.9984

>  <SCORE.INTER.norm>
-0.674222

>  <SCORE.INTRA>
-39.6558

>  <SCORE.INTRA.DIHEDRAL>
-84.7962

>  <SCORE.INTRA.DIHEDRAL.0>
92.3122

>  <SCORE.INTRA.POLAR>
-0.502429

>  <SCORE.INTRA.POLAR.0>
0

>  <SCORE.INTRA.REPUL>
0

>  <SCORE.INTRA.REPUL.0>
0

>  <SCORE.INTRA.VDW>
4.45053

>  <SCORE.INTRA.VDW.0>
-2.56148

>  <SCORE.INTRA.norm>
-1.41628

>  <SCORE.RESTR>
0

>  <SCORE.RESTR.CAVITY>
0

>  <SCORE.RESTR.norm>
0

>  <SCORE.SYSTEM>
2.61327

>  <SCORE.SYSTEM.CONST>
0

>  <SCORE.SYSTEM.DIHEDRAL>
7.15714

>  <SCORE.SYSTEM.POLAR>
-3.51196

>  <SCORE.SYSTEM.VDW>
10.9754

>  <SCORE.SYSTEM.norm>
0.093331

>  <SCORE.heavy>
28

>  <SCORE.norm>
-1.99717

$$$$
F3406-0445
  rDOCK(R)          3D
libRbt.so/2013.1/901 2013/11/27
 30 33  0  0  0  0  0  0  0  0999 V2000
  -23.7742   22.9380   -9.1558 C   0  0  0  0  0  0
  -23.9060   21.4387   -8.9854 C   0  0  0  0  0  0
  -23.2094   20.7422  -10.0246 O   0  0  0  0  0  0
  -23.3397   19.3877  -10.0268 C   0  0  0  0  0  0
  -23.9573   18.7062   -9.2325 O   0  0  0  0  0  0
  -22.4910   18.8773  -11.1148 C   0  0  0  0  0  0
  -21.4171   19.5624  -11.5700 C   0  0  0  0  0  0
  -21.0181   20.8311  -11.1599 N   0  0  0  0  0  0
  -20.0673   21.7285  -11.8012 C   0  0  0  0  0  0
  -20.5776   23.1553  -11.7386 C   0  0  0  0  0  0
  -21.6190   23.6071  -12.5714 C   0  0  0  0  0  0
  -22.0495   24.9157  -12.4317 C   0  0  0  0  0  0
  -21.4810   25.7751  -11.5216 C   0  0  0  0  0  0
  -22.0596   27.0052  -11.5274 O   0  0  0  0  0  0
  -23.0945   26.8110  -12.5111 C   0  0  0  0  0  0
  -23.0566   25.5069  -13.1327 O   0  0  0  0  0  0
  -20.4437   25.3820  -10.7094 C   0  0  0  0  0  0
  -19.9933   24.0636  -10.8236 C   0  0  0  0  0  0
  -20.6094   18.9197  -12.6570 C   0  0  0  0  0  0
  -21.0165   17.6805  -13.1864 C   0  0  0  0  0  0
  -22.1687   17.0668  -12.7036 N   0  3  0  0  0  0
  -22.4876   16.1831  -13.0799 H   0  0  0  0  0  0
  -22.9261   17.5830  -11.6976 C   0  0  0  0  0  0
  -23.9276   16.9859  -11.3113 O   0  0  0  0  0  0
  -20.2864   17.0162  -14.1750 C   0  0  0  0  0  0
  -19.1068   17.5801  -14.6407 C   0  0  0  0  0  0
  -18.1843   16.7560  -15.8356 Cl  0  0  0  0  0  0
  -18.6647   18.7987  -14.1319 C   0  0  0  0  0  0
  -19.4118   19.4652  -13.1484 C   0  0  0  0  0  0
  -21.5989   21.2601  -10.4424 H   0  0  0  0  0  0
  1  2  1  0  0  0
  2  3  1  0  0  0
  3  4  1  0  0  0
  4  5  2  0  0  0
  4  6  1  0  0  0
  6  7  2  0  0  0
  6 23  1  0  0  0
  7  8  1  0  0  0
  7 19  1  0  0  0
  8  9  1  0  0  0
  8 30  1  0  0  0
  9 10  1  0  0  0
 10 11  2  0  0  0
 10 18  1  0  0  0
 11 12  1  0  0  0
 12 13  2  0  0  0
 12 16  1  0  0  0
 13 14  1  0  0  0
 13 17  1  0  0  0
 14 15  1  0  0  0
 15 16  1  0  0  0
 17 18  2  0  0  0
 19 20  2  0  0  0
 19 29  1  0  0  0
 20 21  1  0  0  0
 20 25  1  0  0  0
 21 22  1  0  0  0
 21 23  1  0  0  0
 23 24  2  0  0  0
 25 26  2  0  0  0
 26 27  1  0  0  0
 26 28  1  0  0  0
 28 29  2  0  0  0
M  END
>  <CHROM.0>
38.59656860,-72.55577727,71.07313256,-61.03017950,-29.21817516,63.92398381
-36.65283799,-160.49326399

>  <CHROM.1>
-175.45687380,-1.57413448,25.04950279,-165.31970899,139.55739323,-75.16053168
-21.46057096,20.82333538,-12.07472255,1.92801176,0.77790795,0.05716662

>  <Name>
F3406-0445

>  <RI>
4.09296e+07

>  <Rbt.Current_Directory>
/home/adria/Escritorio/rDock_CMTR_LC/2pxcA_model/inputs_sah

>  <Rbt.Executable>
rbdock ($Id: //depot/dev/client3/rdock/2013.1/src/exe/rbdock.cxx#4 $)

>  <Rbt.Library>
libRbt.so (2013.1, Build901 2013/11/27)

>  <Rbt.Parameter_File>
/home/adria/Escritorio/rDock_2013.1_src/data/scripts/dock.prm

>  <Rbt.Receptor>
sah_rdock.prm

>  <SCORE>
-62.242

>  <SCORE.INTER>
-19.4205

>  <SCORE.INTER.CONST>
1

>  <SCORE.INTER.POLAR>
-1.55466

>  <SCORE.INTER.REPUL>
0.00260901

>  <SCORE.INTER.ROT>
6

>  <SCORE.INTER.VDW>
-25.5477

>  <SCORE.INTER.norm>
-0.693588

>  <SCORE.INTRA>
-39.6405

>  <SCORE.INTRA.DIHEDRAL>
-84.6925

>  <SCORE.INTRA.DIHEDRAL.0>
92.3122

>  <SCORE.INTRA.POLAR>
-0.496529

>  <SCORE.INTRA.POLAR.0>
0

>  <SCORE.INTRA.REPUL>
0

>  <SCORE.INTRA.REPUL.0>
0

>  <SCORE.INTRA.VDW>
4.39395

>  <SCORE.INTRA.VDW.0>
-2.56148

>  <SCORE.INTRA.norm>
-1.41573

>  <SCORE.RESTR>
0

>  <SCORE.RESTR.CAVITY>
0

>  <SCORE.RESTR.norm>
0

>  <SCORE.SYSTEM>
-3.18096

>  <SCORE.SYSTEM.CONST>
0

>  <SCORE.SYSTEM.DIHEDRAL>
8.58978

>  <SCORE.SYSTEM.POLAR>
-3.99043

>  <SCORE.SYSTEM.REPUL>
0.165357

>  <SCORE.SYSTEM.VDW>
5.26484

>  <SCORE.SYSTEM.norm>
-0.113606

>  <SCORE.heavy>
28

>  <SCORE.norm>
-2.22293

$$$$
F3406-0445
  rDOCK(R)          3D
libRbt.so/2013.1/901 2013/11/27
 30 33  0  0  0  0  0  0  0  0999 V2000
  -17.5146   24.4476  -10.0366 C   0  0  0  0  0  0
  -18.6020   25.5003  -10.0983 C   0  0  0  0  0  0
  -19.7850   24.9786  -10.7137 O   0  0  0  0  0  0
  -20.7623   25.8838  -10.9917 C   0  0  0  0  0  0
  -20.8386   27.0300  -10.5950 O   0  0  0  0  0  0
  -21.7867   25.1803  -11.7791 C   0  0  0  0  0  0
  -21.8954   23.8319  -11.7753 C   0  0  0  0  0  0
  -21.0450   22.9412  -11.1269 N   0  0  0  0  0  0
  -20.9289   21.5025  -11.3201 C   0  0  0  0  0  0
  -20.1260   21.2107  -12.5732 C   0  0  0  0  0  0
  -19.3549   20.0399  -12.7034 C   0  0  0  0  0  0
  -18.6750   19.8313  -13.8915 C   0  0  0  0  0  0
  -18.7236   20.7357  -14.9257 C   0  0  0  0  0  0
  -18.0059   20.3353  -16.0085 O   0  0  0  0  0  0
  -17.5378   19.0484  -15.5601 C   0  0  0  0  0  0
  -17.9080   18.7476  -14.1959 O   0  0  0  0  0  0
  -19.4419   21.9040  -14.8285 C   0  0  0  0  0  0
  -20.1445   22.1375  -13.6429 C   0  0  0  0  0  0
  -23.0039   23.2353  -12.5892 C   0  0  0  0  0  0
  -23.8393   24.0756  -13.3490 C   0  0  0  0  0  0
  -23.6247   25.4509  -13.3458 N   0  3  0  0  0  0
  -24.2041   26.0720  -13.8960 H   0  0  0  0  0  0
  -22.6571   26.0555  -12.6040 C   0  0  0  0  0  0
  -22.5262   27.2763  -12.6390 O   0  0  0  0  0  0
  -24.9098   23.5821  -14.0988 C   0  0  0  0  0  0
  -25.1785   22.2206  -14.0820 C   0  0  0  0  0  0
  -26.5124   21.6062  -14.9771 Cl  0  0  0  0  0  0
  -24.3821   21.3590  -13.3319 C   0  0  0  0  0  0
  -23.3009   21.8623  -12.5922 C   0  0  0  0  0  0
  -20.2844   23.3681  -10.6021 H   0  0  0  0  0  0
  1  2  1  0  0  0
  2  3  1  0  0  0
  3  4  1  0  0  0
  4  5  2  0  0  0
  4  6  1  0  0  0
  6  7  2  0  0  0
  6 23  1  0  0  0
  7  8  1  0  0  0
  7 19  1  0  0  0
  8  9  1  0  0  0
  8 30  1  0  0  0
  9 10  1  0  0  0
 10 11  2  0  0  0
 10 18  1  0  0  0
 11 12  1  0  0  0
 12 13  2  0  0  0
 12 16  1  0  0  0
 13 14  1  0  0  0
 13 17  1  0  0  0
 14 15  1  0  0  0
 15 16  1  0  0  0
 17 18  2  0  0  0
 19 20  2  0  0  0
 19 29  1  0  0  0
 20 21  1  0  0  0
 20 25  1  0  0  0
 21 22  1  0  0  0
 21 23  1  0  0  0
 23 24  2  0  0  0
 25 26  2  0  0  0
 26 27  1  0  0  0
 26 28  1  0  0  0
 28 29  2  0  0  0
M  END
>  <CHROM.0>
-177.27045239,-73.15031384,111.29345581,64.58761413,168.31679801,-175.66530235
-38.29661596,-161.65962438

>  <CHROM.1>
-171.20114996,-12.56096105,20.21469850,-165.08305833,78.26730464,150.80300932
-21.39081606,22.89114011,-12.96271809,-0.61488602,-0.22705494,0.56784986

>  <Name>
F3406-0445

>  <RI>
4.09296e+07

>  <Rbt.Current_Directory>
/home/adria/Escritorio/rDock_CMTR_LC/2pxcA_model/inputs_sah

>  <Rbt.Executable>
rbdock ($Id: //depot/dev/client3/rdock/2013.1/src/exe/rbdock.cxx#4 $)

>  <Rbt.Library>
libRbt.so (2013.1, Build901 2013/11/27)

>  <Rbt.Parameter_File>
/home/adria/Escritorio/rDock_2013.1_src/data/scripts/dock.prm

>  <Rbt.Receptor>
sah_rdock.prm

>  <SCORE>
-61.0303

>  <SCORE.INTER>
-20.7012

>  <SCORE.INTER.CONST>
1

>  <SCORE.INTER.POLAR>
-2.68439

>  <SCORE.INTER.REPUL>
0.225749

>  <SCORE.INTER.ROT>
6

>  <SCORE.INTER.VDW>
-24.103

>  <SCORE.INTER.norm>
-0.73933

>  <SCORE.INTRA>
-38.2485

>  <SCORE.INTRA.DIHEDRAL>
-82.689

>  <SCORE.INTRA.DIHEDRAL.0>
92.3122

>  <SCORE.INTRA.POLAR>
-0.518214

>  <SCORE.INTRA.POLAR.0>
0

>  <SCORE.INTRA.REPUL>
0

>  <SCORE.INTRA.REPUL.0>
0

>  <SCORE.INTRA.VDW>
4.85794

>  <SCORE.INTRA.VDW.0>
-2.56148

>  <SCORE.INTRA.norm>
-1.36602

>  <SCORE.RESTR>
0

>  <SCORE.RESTR.CAVITY>
0

>  <SCORE.RESTR.norm>
0

>  <SCORE.SYSTEM>
-2.08055

>  <SCORE.SYSTEM.CONST>
0

>  <SCORE.SYSTEM.DIHEDRAL>
6.59355

>  <SCORE.SYSTEM.POLAR>
-4.47921

>  <SCORE.SYSTEM.REPUL>
0.0388029

>  <SCORE.SYSTEM.VDW>
9.65797

>  <SCORE.SYSTEM.norm>
-0.0743055

>  <SCORE.heavy>
28

>  <SCORE.norm>
-2.17965

$$$$
F3406-0445
  rDOCK(R)          3D
libRbt.so/2013.1/901 2013/11/27
 30 33  0  0  0  0  0  0  0  0999 V2000
  -26.4740   21.0137  -15.0707 C   0  0  0  0  0  0
  -25.5722   20.4465  -13.9939 C   0  0  0  0  0  0
  -24.3746   19.9051  -14.5621 O   0  0  0  0  0  0
  -23.4467   19.4497  -13.6771 C   0  0  0  0  0  0
  -23.5657   19.3497  -12.4718 O   0  0  0  0  0  0
  -22.2125   19.2029  -14.4389 C   0  0  0  0  0  0
  -21.1771   20.0733  -14.4308 C   0  0  0  0  0  0
  -21.1523   21.3145  -13.8017 N   0  0  0  0  0  0
  -22.1523   21.8978  -12.9183 C   0  0  0  0  0  0
  -21.5966   23.1447  -12.2578 C   0  0  0  0  0  0
  -20.3896   23.1242  -11.5332 C   0  0  0  0  0  0
  -19.9330   24.3115  -10.9861 C   0  0  0  0  0  0
  -20.6292   25.4893  -11.1202 C   0  0  0  0  0  0
  -20.0024   26.5409  -10.5293 O   0  0  0  0  0  0
  -18.8030   25.9034  -10.0484 C   0  0  0  0  0  0
  -18.7791   24.4773  -10.2816 O   0  0  0  0  0  0
  -21.8253   25.5467  -11.7958 C   0  0  0  0  0  0
  -22.3068   24.3644  -12.3651 C   0  0  0  0  0  0
  -19.9594   19.6912  -15.2173 C   0  0  0  0  0  0
  -19.9568   18.4942  -15.9580 C   0  0  0  0  0  0
  -21.0860   17.6804  -15.9616 N   0  3  0  0  0  0
  -21.1110   16.8229  -16.4987 H   0  0  0  0  0  0
  -22.2090   17.9555  -15.2440 C   0  0  0  0  0  0
  -23.1689   17.1900  -15.2836 O   0  0  0  0  0  0
  -18.8404   18.0677  -16.6815 C   0  0  0  0  0  0
  -17.6833   18.8337  -16.6565 C   0  0  0  0  0  0
  -16.2933   18.3025  -17.5187 Cl  0  0  0  0  0  0
  -17.6432   20.0177  -15.9244 C   0  0  0  0  0  0
  -18.7740   20.4448  -15.2115 C   0  0  0  0  0  0
  -20.2494   21.7845  -13.8001 H   0  0  0  0  0  0
  1  2  1  0  0  0
  2  3  1  0  0  0
  3  4  1  0  0  0
  4  5  2  0  0  0
  4  6  1  0  0  0
  6  7  2  0  0  0
  6 23  1  0  0  0
  7  8  1  0  0  0
  7 19  1  0  0  0
  8  9  1  0  0  0
  8 30  1  0  0  0
  9 10  1  0  0  0
 10 11  2  0  0  0
 10 18  1  0  0  0
 11 12  1  0  0  0
 12 13  2  0  0  0
 12 16  1  0  0  0
 13 14  1  0  0  0
 13 17  1  0  0  0
 14 15  1  0  0  0
 15 16  1  0  0  0
 17 18  2  0  0  0
 19 20  2  0  0  0
 19 29  1  0  0  0
 20 21  1  0  0  0
 20 25  1  0  0  0
 21 22  1  0  0  0
 21 23  1  0  0  0
 23 24  2  0  0  0
 25 26  2  0  0  0
 26 27  1  0  0  0
 26 28  1  0  0  0
 28 29  2  0  0  0
M  END
>  <CHROM.0>
-61.77389566,-167.92046486,-166.97306683,65.78655494,-29.65769303,-57.85803968
-157.68522052,-165.03255469

>  <CHROM.1>
175.64233550,6.59780834,101.07910393,6.57998121,169.24535651,-54.65455047
-20.87650851,21.01058708,-13.95188073,1.71574368,0.16445773,0.64717093

>  <Name>
F3406-0445

>  <RI>
4.09296e+07

>  <Rbt.Current_Directory>
/home/adria/Escritorio/rDock_CMTR_LC/2pxcA_model/inputs_sah

>  <Rbt.Executable>
rbdock ($Id: //depot/dev/client3/rdock/2013.1/src/exe/rbdock.cxx#4 $)

>  <Rbt.Library>
libRbt.so (2013.1, Build901 2013/11/27)

>  <Rbt.Parameter_File>
/home/adria/Escritorio/rDock_2013.1_src/data/scripts/dock.prm

>  <Rbt.Receptor>
sah_rdock.prm

>  <SCORE>
-58.5828

>  <SCORE.INTER>
-16.0107

>  <SCORE.INTER.CONST>
1

>  <SCORE.INTER.POLAR>
-1.79907

>  <SCORE.INTER.REPUL>
0

>  <SCORE.INTER.ROT>
6

>  <SCORE.INTER.VDW>
-21.2939

>  <SCORE.INTER.norm>
-0.571812

>  <SCORE.INTRA>
-36.1479

>  <SCORE.INTRA.DIHEDRAL>
-76.4247

>  <SCORE.INTRA.DIHEDRAL.0>
92.3122

>  <SCORE.INTRA.POLAR>
0

>  <SCORE.INTRA.POLAR.0>
0

>  <SCORE.INTRA.REPUL>
0

>  <SCORE.INTRA.REPUL.0>
0

>  <SCORE.INTRA.VDW>
2.06444

>  <SCORE.INTRA.VDW.0>
-2.56148

>  <SCORE.INTRA.norm>
-1.291

>  <SCORE.RESTR>
0

>  <SCORE.RESTR.CAVITY>
0

>  <SCORE.RESTR.norm>
0

>  <SCORE.SYSTEM>
-6.42415

>  <SCORE.SYSTEM.CONST>
0

>  <SCORE.SYSTEM.DIHEDRAL>
6.36976

>  <SCORE.SYSTEM.POLAR>
-3.69384

>  <SCORE.SYSTEM.VDW>
2.95002

>  <SCORE.SYSTEM.norm>
-0.229434

>  <SCORE.heavy>
28

>  <SCORE.norm>
-2.09224

$$$$
F3406-0445
  rDOCK(R)          3D
libRbt.so/2013.1/901 2013/11/27
 30 33  0  0  0  0  0  0  0  0999 V2000
  -24.0582   22.2780   -8.5695 C   0  0  0  0  0  0
  -24.2344   20.7870   -8.7708 C   0  0  0  0  0  0
  -23.4223   20.3171   -9.8524 O   0  0  0  0  0  0
  -23.5113   18.9883  -10.1323 C   0  0  0  0  0  0
  -24.1970   18.1608   -9.5649 O   0  0  0  0  0  0
  -22.5267   18.7059  -11.1883 C   0  0  0  0  0  0
  -21.5594   19.5901  -11.5238 C   0  0  0  0  0  0
  -21.4052   20.8736  -11.0082 N   0  0  0  0  0  0
  -20.6818   21.9970  -11.5873 C   0  0  0  0  0  0
  -21.6505   23.1064  -11.9490 C   0  0  0  0  0  0
  -21.3437   24.4615  -11.7214 C   0  0  0  0  0  0
  -22.2682   25.4171  -12.1082 C   0  0  0  0  0  0
  -23.4675   25.0763  -12.6873 C   0  0  0  0  0  0
  -24.2218   26.1598  -13.0111 O   0  0  0  0  0  0
  -23.3402   27.2290  -12.6164 C   0  0  0  0  0  0
  -22.1241   26.7662  -11.9875 O   0  0  0  0  0  0
  -23.8175   23.7640  -12.9014 C   0  0  0  0  0  0
  -22.9000   22.7780  -12.5275 C   0  0  0  0  0  0
  -20.5928   19.1707  -12.5901 C   0  0  0  0  0  0
  -20.7531   17.9237  -13.2232 C   0  0  0  0  0  0
  -21.8111   17.0949  -12.8611 N   0  3  0  0  0  0
  -21.9535   16.2007  -13.3133 H   0  0  0  0  0  0
  -22.7021   17.4040  -11.8800 C   0  0  0  0  0  0
  -23.6089   16.6234  -11.6025 O   0  0  0  0  0  0
  -19.8649   17.4631  -14.1981 C   0  0  0  0  0  0
  -18.7726   18.2461  -14.5443 C   0  0  0  0  0  0
  -17.6560   17.6752  -15.7213 Cl  0  0  0  0  0  0
  -18.5732   19.4802  -13.9306 C   0  0  0  0  0  0
  -19.4782   19.9405  -12.9617 C   0  0  0  0  0  0
  -22.0286   21.1126  -10.2399 H   0  0  0  0  0  0
  1  2  1  0  0  0
  2  3  1  0  0  0
  3  4  1  0  0  0
  4  5  2  0  0  0
  4  6  1  0  0  0
  6  7  2  0  0  0
  6 23  1  0  0  0
  7  8  1  0  0  0
  7 19  1  0  0  0
  8  9  1  0  0  0
  8 30  1  0  0  0
  9 10  1  0  0  0
 10 11  2  0  0  0
 10 18  1  0  0  0
 11 12  1  0  0  0
 12 13  2  0  0  0
 12 16  1  0  0  0
 13 14  1  0  0  0
 13 17  1  0  0  0
 14 15  1  0  0  0
 15 16  1  0  0  0
 17 18  2  0  0  0
 19 20  2  0  0  0
 19 29  1  0  0  0
 20 21  1  0  0  0
 20 25  1  0  0  0
 21 22  1  0  0  0
 21 23  1  0  0  0
 23 24  2  0  0  0
 25 26  2  0  0  0
 26 27  1  0  0  0
 26 28  1  0  0  0
 28 29  2  0  0  0
M  END
>  <CHROM.0>
167.16290860,66.29256473,72.60737354,64.50620548,168.38780455,-56.54573498
82.89270647,-162.63434279

>  <CHROM.1>
-179.38133242,-0.28488781,13.34791678,-159.20086956,114.30933992,139.38256967
-21.78544183,20.83783440,-12.18740454,2.14742951,0.75792608,-0.16054869

>  <Name>
F3406-0445

>  <RI>
4.09296e+07

>  <Rbt.Current_Directory>
/home/adria/Escritorio/rDock_CMTR_LC/2pxcA_model/inputs_sah

>  <Rbt.Executable>
rbdock ($Id: //depot/dev/client3/rdock/2013.1/src/exe/rbdock.cxx#4 $)

>  <Rbt.Library>
libRbt.so (2013.1, Build901 2013/11/27)

>  <Rbt.Parameter_File>
/home/adria/Escritorio/rDock_2013.1_src/data/scripts/dock.prm

>  <Rbt.Receptor>
sah_rdock.prm

>  <SCORE>
-54.6898

>  <SCORE.INTER>
-15.0312

>  <SCORE.INTER.CONST>
1

>  <SCORE.INTER.POLAR>
-2.17975

>  <SCORE.INTER.REPUL>
0

>  <SCORE.INTER.ROT>
6

>  <SCORE.INTER.VDW>
-19.02

>  <SCORE.INTER.norm>
-0.536827

>  <SCORE.INTRA>
-38.0665

>  <SCORE.INTRA.DIHEDRAL>
-82.3911

>  <SCORE.INTRA.DIHEDRAL.0>
92.3122

>  <SCORE.INTRA.POLAR>
-0.510526

>  <SCORE.INTRA.POLAR.0>
0

>  <SCORE.INTRA.REPUL>
0

>  <SCORE.INTRA.REPUL.0>
0

>  <SCORE.INTRA.VDW>
4.8649

>  <SCORE.INTRA.VDW.0>
-2.56148

>  <SCORE.INTRA.norm>
-1.35952

>  <SCORE.RESTR>
0

>  <SCORE.RESTR.CAVITY>
0

>  <SCORE.RESTR.norm>
0

>  <SCORE.SYSTEM>
-1.59222

>  <SCORE.SYSTEM.CONST>
0

>  <SCORE.SYSTEM.DIHEDRAL>
3.70256

>  <SCORE.SYSTEM.POLAR>
-3.59002

>  <SCORE.SYSTEM.VDW>
8.76258

>  <SCORE.SYSTEM.norm>
-0.056865

>  <SCORE.heavy>
28

>  <SCORE.norm>
-1.95321

$$$$
F3406-0445
  rDOCK(R)          3D
libRbt.so/2013.1/901 2013/11/27
 30 33  0  0  0  0  0  0  0  0999 V2000
  -26.1554   17.9750  -12.8061 C   0  0  0  0  0  0
  -24.8082   17.5972  -12.2256 C   0  0  0  0  0  0
  -23.7945   17.6062  -13.2368 O   0  0  0  0  0  0
  -23.4614   18.8269  -13.7375 C   0  0  0  0  0  0
  -24.0913   19.8612  -13.6360 O   0  0  0  0  0  0
  -22.2384   18.6441  -14.5345 C   0  0  0  0  0  0
  -21.1694   19.4633  -14.4082 C   0  0  0  0  0  0
  -21.0953   20.5996  -13.6080 N   0  0  0  0  0  0
  -21.9957   21.0104  -12.5397 C   0  0  0  0  0  0
  -21.9088   22.5108  -12.3366 C   0  0  0  0  0  0
  -21.0673   23.0791  -11.3614 C   0  0  0  0  0  0
  -21.0208   24.4592  -11.2591 C   0  0  0  0  0  0
  -21.7780   25.2743  -12.0667 C   0  0  0  0  0  0
  -21.5721   26.5954  -11.8215 O   0  0  0  0  0  0
  -20.5590   26.5246  -10.7993 C   0  0  0  0  0  0
  -20.2471   25.1728  -10.3945 O   0  0  0  0  0  0
  -22.6329   24.7591  -13.0122 C   0  0  0  0  0  0
  -22.6948   23.3687  -13.1428 C   0  0  0  0  0  0
  -19.9682   19.1508  -15.2489 C   0  0  0  0  0  0
  -20.0132   18.0733  -16.1534 C   0  0  0  0  0  0
  -21.1736   17.3129  -16.2666 N   0  3  0  0  0  0
  -21.2327   16.5430  -16.9208 H   0  0  0  0  0  0
  -22.2845   17.5258  -15.5099 C   0  0  0  0  0  0
  -23.2738   16.8119  -15.6528 O   0  0  0  0  0  0
  -18.9149   17.7118  -16.9375 C   0  0  0  0  0  0
  -17.7285   18.4206  -16.8102 C   0  0  0  0  0  0
  -16.3609   17.9648  -17.7483 Cl  0  0  0  0  0  0
  -17.6413   19.4849  -15.9164 C   0  0  0  0  0  0
  -18.7540   19.8492  -15.1425 C   0  0  0  0  0  0
  -20.2080   21.0975  -13.6388 H   0  0  0  0  0  0
  1  2  1  0  0  0
  2  3  1  0  0  0
  3  4  1  0  0  0
  4  5  2  0  0  0
  4  6  1  0  0  0
  6  7  2  0  0  0
  6 23  1  0  0  0
  7  8  1  0  0  0
  7 19  1  0  0  0
  8  9  1  0  0  0
  8 30  1  0  0  0
  9 10  1  0  0  0
 10 11  2  0  0  0
 10 18  1  0  0  0
 11 12  1  0  0  0
 12 13  2  0  0  0
 12 16  1  0  0  0
 13 14  1  0  0  0
 13 17  1  0  0  0
 14 15  1  0  0  0
 15 16  1  0  0  0
 17 18  2  0  0  0
 19 20  2  0  0  0
 19 29  1  0  0  0
 20 21  1  0  0  0
 20 25  1  0  0  0
 21 22  1  0  0  0
 21 23  1  0  0  0
 23 24  2  0  0  0
 25 26  2  0  0  0
 26 27  1  0  0  0
 26 28  1  0  0  0
 28 29  2  0  0  0
M  END
>  <CHROM.0>
-65.25948432,-76.36157135,75.52320063,-67.34073373,-31.54578346,-58.89905418
-35.86364918,-168.37857586

>  <CHROM.1>
68.77522636,-16.22681941,-132.50884434,14.12584770,-156.37806788,-95.20542357
-21.16981408,20.42460571,-14.03460186,1.85515096,0.42431325,0.48600635

>  <Name>
F3406-0445

>  <RI>
4.09296e+07

>  <Rbt.Current_Directory>
/home/adria/Escritorio/rDock_CMTR_LC/2pxcA_model/inputs_sah

>  <Rbt.Executable>
rbdock ($Id: //depot/dev/client3/rdock/2013.1/src/exe/rbdock.cxx#4 $)

>  <Rbt.Library>
libRbt.so (2013.1, Build901 2013/11/27)

>  <Rbt.Parameter_File>
/home/adria/Escritorio/rDock_2013.1_src/data/scripts/dock.prm

>  <Rbt.Receptor>
sah_rdock.prm

>  <SCORE>
-56.001

>  <SCORE.INTER>
-14.6377

>  <SCORE.INTER.CONST>
1

>  <SCORE.INTER.POLAR>
-2.91082

>  <SCORE.INTER.REPUL>
0.0733273

>  <SCORE.INTER.ROT>
6

>  <SCORE.INTER.VDW>
-16.5076

>  <SCORE.INTER.norm>
-0.522776

>  <SCORE.INTRA>
-33.8717

>  <SCORE.INTRA.DIHEDRAL>
-77.3367

>  <SCORE.INTRA.DIHEDRAL.0>
92.3122

>  <SCORE.INTRA.POLAR>
0

>  <SCORE.INTRA.POLAR.0>
0

>  <SCORE.INTRA.REPUL>
0

>  <SCORE.INTRA.REPUL.0>
0

>  <SCORE.INTRA.VDW>
4.79668

>  <SCORE.INTRA.VDW.0>
-2.56148

>  <SCORE.INTRA.norm>
-1.2097

>  <SCORE.RESTR>
0

>  <SCORE.RESTR.CAVITY>
0

>  <SCORE.RESTR.norm>
0

>  <SCORE.SYSTEM>
-7.49163

>  <SCORE.SYSTEM.CONST>
0

>  <SCORE.SYSTEM.DIHEDRAL>
6.96565

>  <SCORE.SYSTEM.POLAR>
-4.12302

>  <SCORE.SYSTEM.REPUL>
0.043978

>  <SCORE.SYSTEM.VDW>
2.82393

>  <SCORE.SYSTEM.norm>
-0.267558

>  <SCORE.heavy>
28

>  <SCORE.norm>
-2.00004

$$$$
F3406-0445
  rDOCK(R)          3D
libRbt.so/2013.1/901 2013/11/27
 30 33  0  0  0  0  0  0  0  0999 V2000
  -24.7408   17.5690  -10.7825 C   0  0  0  0  0  0
  -24.9585   17.4588  -12.2775 C   0  0  0  0  0  0
  -23.8009   17.8975  -12.9970 O   0  0  0  0  0  0
  -23.8795   17.8284  -14.3538 C   0  0  0  0  0  0
  -24.8259   17.4551  -15.0183 O   0  0  0  0  0  0
  -22.5519   18.1842  -14.8786 C   0  0  0  0  0  0
  -21.6419   18.8550  -14.1358 C   0  0  0  0  0  0
  -21.8401   19.3621  -12.8550 N   0  0  0  0  0  0
  -21.0011   20.2936  -12.1141 C   0  0  0  0  0  0
  -21.7364   21.6041  -11.9097 C   0  0  0  0  0  0
  -21.7054   22.6294  -12.8741 C   0  0  0  0  0  0
  -22.4286   23.7841  -12.6270 C   0  0  0  0  0  0
  -23.1534   23.9550  -11.4714 C   0  0  0  0  0  0
  -23.8067   25.1465  -11.4318 O   0  0  0  0  0  0
  -23.4530   25.6901  -12.7185 C   0  0  0  0  0  0
  -22.5306   24.8587  -13.4578 O   0  0  0  0  0  0
  -23.1874   22.9902  -10.4925 C   0  0  0  0  0  0
  -22.4724   21.8105  -10.7184 C   0  0  0  0  0  0
  -20.3108   19.1258  -14.7700 C   0  0  0  0  0  0
  -20.0797   18.7268  -16.1000 C   0  0  0  0  0  0
  -21.0898   18.0928  -16.8176 N   0  3  0  0  0  0
  -20.9501   17.8105  -17.7794 H   0  0  0  0  0  0
  -22.3068   17.7904  -16.2889 C   0  0  0  0  0  0
  -23.1524   17.2210  -16.9741 O   0  0  0  0  0  0
  -18.8494   18.9200  -16.7331 C   0  0  0  0  0  0
  -17.8079   19.5048  -16.0265 C   0  0  0  0  0  0
  -16.2800   19.7195  -16.7864 Cl  0  0  0  0  0  0
  -17.9944   19.9011  -14.7045 C   0  0  0  0  0  0
  -19.2378   19.7151  -14.0811 C   0  0  0  0  0  0
  -22.7719   19.2216  -12.4699 H   0  0  0  0  0  0
  1  2  1  0  0  0
  2  3  1  0  0  0
  3  4  1  0  0  0
  4  5  2  0  0  0
  4  6  1  0  0  0
  6  7  2  0  0  0
  6 23  1  0  0  0
  7  8  1  0  0  0
  7 19  1  0  0  0
  8  9  1  0  0  0
  8 30  1  0  0  0
  9 10  1  0  0  0
 10 11  2  0  0  0
 10 18  1  0  0  0
 11 12  1  0  0  0
 12 13  2  0  0  0
 12 16  1  0  0  0
 13 14  1  0  0  0
 13 17  1  0  0  0
 14 15  1  0  0  0
 15 16  1  0  0  0
 17 18  2  0  0  0
 19 20  2  0  0  0
 19 29  1  0  0  0
 20 21  1  0  0  0
 20 25  1  0  0  0
 21 22  1  0  0  0
 21 23  1  0  0  0
 23 24  2  0  0  0
 25 26  2  0  0  0
 26 27  1  0  0  0
 26 28  1  0  0  0
 28 29  2  0  0  0
M  END
>  <CHROM.0>
177.56563056,-74.36077521,72.89751193,63.34459120,-31.29012561,60.29173352
-156.40728385,-163.59514504

>  <CHROM.1>
179.32377160,1.12106089,-19.03783958,-167.44749427,113.66882096,-86.41754012
-21.60142943,20.18558187,-13.94789292,2.26345221,0.49081383,0.43142688

>  <Name>
F3406-0445

>  <RI>
4.09296e+07

>  <Rbt.Current_Directory>
/home/adria/Escritorio/rDock_CMTR_LC/2pxcA_model/inputs_sah

>  <Rbt.Executable>
rbdock ($Id: //depot/dev/client3/rdock/2013.1/src/exe/rbdock.cxx#4 $)

>  <Rbt.Library>
libRbt.so (2013.1, Build901 2013/11/27)

>  <Rbt.Parameter_File>
/home/adria/Escritorio/rDock_2013.1_src/data/scripts/dock.prm

>  <Rbt.Receptor>
sah_rdock.prm

>  <SCORE>
-57.5594

>  <SCORE.INTER>
-10.6635

>  <SCORE.INTER.CONST>
1

>  <SCORE.INTER.POLAR>
-3.02864

>  <SCORE.INTER.REPUL>
0.940274

>  <SCORE.INTER.ROT>
6

>  <SCORE.INTER.VDW>
-16.4675

>  <SCORE.INTER.norm>
-0.380838

>  <SCORE.INTRA>
-39.2422

>  <SCORE.INTRA.DIHEDRAL>
-86.2419

>  <SCORE.INTRA.DIHEDRAL.0>
92.3122

>  <SCORE.INTRA.POLAR>
-0.435204

>  <SCORE.INTRA.POLAR.0>
0

>  <SCORE.INTRA.REPUL>
0

>  <SCORE.INTRA.REPUL.0>
0

>  <SCORE.INTRA.VDW>
5.35844

>  <SCORE.INTRA.VDW.0>
-2.56148

>  <SCORE.INTRA.norm>
-1.40151

>  <SCORE.RESTR>
0

>  <SCORE.RESTR.CAVITY>
0

>  <SCORE.RESTR.norm>
0

>  <SCORE.SYSTEM>
-7.65367

>  <SCORE.SYSTEM.CONST>
0

>  <SCORE.SYSTEM.DIHEDRAL>
6.3975

>  <SCORE.SYSTEM.POLAR>
-4.1281

>  <SCORE.SYSTEM.REPUL>
0.0408745

>  <SCORE.SYSTEM.VDW>
2.97873

>  <SCORE.SYSTEM.norm>
-0.273345

>  <SCORE.heavy>
28

>  <SCORE.norm>
-2.05569

$$$$
F3406-0445
  rDOCK(R)          3D
libRbt.so/2013.1/901 2013/11/27
 30 33  0  0  0  0  0  0  0  0999 V2000
  -25.8167   21.2659  -13.3745 C   0  0  0  0  0  0
  -24.7817   20.8387  -12.3543 C   0  0  0  0  0  0
  -23.5931   20.3665  -12.9979 O   0  0  0  0  0  0
  -23.6729   19.1341  -13.5694 C   0  0  0  0  0  0
  -24.5937   18.3448  -13.4917 O   0  0  0  0  0  0
  -22.3763   18.8762  -14.2150 C   0  0  0  0  0  0
  -21.2685   19.5914  -13.9130 C   0  0  0  0  0  0
  -21.2050   20.6828  -13.0517 N   0  0  0  0  0  0
  -20.0972   21.6052  -12.8451 C   0  0  0  0  0  0
  -20.6251   22.9650  -12.4302 C   0  0  0  0  0  0
  -21.5719   23.6606  -13.2061 C   0  0  0  0  0  0
  -22.0280   24.8833  -12.7431 C   0  0  0  0  0  0
  -21.5726   25.4318  -11.5677 C   0  0  0  0  0  0
  -22.1590   26.6245  -11.2820 O   0  0  0  0  0  0
  -23.0762   26.7448  -12.3868 C   0  0  0  0  0  0
  -22.9567   25.6738  -13.3498 O   0  0  0  0  0  0
  -20.6282   24.7984  -10.7950 C   0  0  0  0  0  0
  -20.1551   23.5586  -11.2342 C   0  0  0  0  0  0
  -19.9986   19.2083  -14.6113 C   0  0  0  0  0  0
  -20.0151   18.1770  -15.5692 C   0  0  0  0  0  0
  -21.2100   17.5281  -15.8666 N   0  3  0  0  0  0
  -21.2474   16.7939  -16.5623 H   0  0  0  0  0  0
  -22.3881   17.8075  -15.2454 C   0  0  0  0  0  0
  -23.4062   17.1908  -15.5484 O   0  0  0  0  0  0
  -18.8582   17.7519  -16.2269 C   0  0  0  0  0  0
  -17.6437   18.3468  -15.9149 C   0  0  0  0  0  0
  -16.2086   17.8103  -16.6963 Cl  0  0  0  0  0  0
  -17.5852   19.3616  -14.9630 C   0  0  0  0  0  0
  -18.7548   19.7911  -14.3171 C   0  0  0  0  0  0
  -22.0972   20.9885  -12.6688 H   0  0  0  0  0  0
  1  2  1  0  0  0
  2  3  1  0  0  0
  3  4  1  0  0  0
  4  5  2  0  0  0
  4  6  1  0  0  0
  6  7  2  0  0  0
  6 23  1  0  0  0
  7  8  1  0  0  0
  7 19  1  0  0  0
  8  9  1  0  0  0
  8 30  1  0  0  0
  9 10  1  0  0  0
 10 11  2  0  0  0
 10 18  1  0  0  0
 11 12  1  0  0  0
 12 13  2  0  0  0
 12 16  1  0  0  0
 13 14  1  0  0  0
 13 17  1  0  0  0
 14 15  1  0  0  0
 15 16  1  0  0  0
 17 18  2  0  0  0
 19 20  2  0  0  0
 19 29  1  0  0  0
 20 21  1  0  0  0
 20 25  1  0  0  0
 21 22  1  0  0  0
 21 23  1  0  0  0
 23 24  2  0  0  0
 25 26  2  0  0  0
 26 27  1  0  0  0
 26 28  1  0  0  0
 28 29  2  0  0  0
M  END
>  <CHROM.0>
-57.69026385,66.40969028,-8.83384280,-147.37736810,-30.68519002,55.10962406
-36.14443517,-165.98858181

>  <CHROM.1>
-74.49486878,-7.17673321,16.95445573,-169.90038843,150.91208287,-55.13851279
-21.18880161,20.85688936,-13.85039343,2.01565460,0.19724816,0.40771745

>  <Name>
F3406-0445

>  <RI>
4.09296e+07

>  <Rbt.Current_Directory>
/home/adria/Escritorio/rDock_CMTR_LC/2pxcA_model/inputs_sah

>  <Rbt.Executable>
rbdock ($Id: //depot/dev/client3/rdock/2013.1/src/exe/rbdock.cxx#4 $)

>  <Rbt.Library>
libRbt.so (2013.1, Build901 2013/11/27)

>  <Rbt.Parameter_File>
/home/adria/Escritorio/rDock_2013.1_src/data/scripts/dock.prm

>  <Rbt.Receptor>
sah_rdock.prm

>  <SCORE>
-58.7776

>  <SCORE.INTER>
-17.0503

>  <SCORE.INTER.CONST>
1

>  <SCORE.INTER.POLAR>
-2.84101

>  <SCORE.INTER.REPUL>
0.101739

>  <SCORE.INTER.ROT>
6

>  <SCORE.INTER.VDW>
-19.2995

>  <SCORE.INTER.norm>
-0.608938

>  <SCORE.INTRA>
-38.1781

>  <SCORE.INTRA.DIHEDRAL>
-85.8437

>  <SCORE.INTRA.DIHEDRAL.0>
92.3122

>  <SCORE.INTRA.POLAR>
-0.544903

>  <SCORE.INTRA.POLAR.0>
0

>  <SCORE.INTRA.REPUL>
0

>  <SCORE.INTRA.REPUL.0>
0

>  <SCORE.INTRA.VDW>
6.59643

>  <SCORE.INTRA.VDW.0>
-2.56148

>  <SCORE.INTRA.norm>
-1.3635

>  <SCORE.RESTR>
0

>  <SCORE.RESTR.CAVITY>
0

>  <SCORE.RESTR.norm>
0

>  <SCORE.SYSTEM>
-3.54923

>  <SCORE.SYSTEM.CONST>
0

>  <SCORE.SYSTEM.DIHEDRAL>
12.7723

>  <SCORE.SYSTEM.POLAR>
-4.30862

>  <SCORE.SYSTEM.VDW>
4.71396

>  <SCORE.SYSTEM.norm>
-0.126758

>  <SCORE.heavy>
28

>  <SCORE.norm>
-2.0992

$$$$
F3406-0445
  rDOCK(R)          3D
libRbt.so/2013.1/901 2013/11/27
 30 33  0  0  0  0  0  0  0  0999 V2000
  -23.9612   23.1131   -8.7797 C   0  0  0  0  0  0
  -23.8701   21.6310   -8.4801 C   0  0  0  0  0  0
  -23.3521   20.9124   -9.6050 O   0  0  0  0  0  0
  -23.2369   19.5652   -9.4512 C   0  0  0  0  0  0
  -23.5218   18.9093   -8.4687 O   0  0  0  0  0  0
  -22.5878   19.0491  -10.6665 C   0  0  0  0  0  0
  -21.6611   19.7639  -11.3449 C   0  0  0  0  0  0
  -21.2602   21.0664  -11.0626 N   0  0  0  0  0  0
  -20.6687   22.0436  -11.9659 C   0  0  0  0  0  0
  -21.6567   23.1611  -12.2399 C   0  0  0  0  0  0
  -21.3685   24.5008  -11.9170 C   0  0  0  0  0  0
  -22.3101   25.4673  -12.2275 C   0  0  0  0  0  0
  -23.5086   25.1506  -12.8219 C   0  0  0  0  0  0
  -24.2816   26.2429  -13.0614 O   0  0  0  0  0  0
  -23.4131   27.2943  -12.5963 C   0  0  0  0  0  0
  -22.1853   26.8062  -12.0106 O   0  0  0  0  0  0
  -23.8405   23.8520  -13.1280 C   0  0  0  0  0  0
  -22.9055   22.8559  -12.8324 C   0  0  0  0  0  0
  -21.0448   19.1138  -12.5469 C   0  0  0  0  0  0
  -21.4783   17.8353  -12.9455 C   0  0  0  0  0  0
  -22.4803   17.1893  -12.2271 N   0  3  0  0  0  0
  -22.8171   16.2762  -12.5046 H   0  0  0  0  0  0
  -23.0560   17.7119  -11.1102 C   0  0  0  0  0  0
  -23.9299   17.0854  -10.5164 O   0  0  0  0  0  0
  -20.9178   17.1643  -14.0351 C   0  0  0  0  0  0
  -19.8830   17.7626  -14.7404 C   0  0  0  0  0  0
  -19.1651   16.9323  -16.0645 Cl  0  0  0  0  0  0
  -19.4181   19.0214  -14.3680 C   0  0  0  0  0  0
  -19.9963   19.6936  -13.2802 C   0  0  0  0  0  0
  -21.5971   21.4445  -10.1796 H   0  0  0  0  0  0
  1  2  1  0  0  0
  2  3  1  0  0  0
  3  4  1  0  0  0
  4  5  2  0  0  0
  4  6  1  0  0  0
  6  7  2  0  0  0
  6 23  1  0  0  0
  7  8  1  0  0  0
  7 19  1  0  0  0
  8  9  1  0  0  0
  8 30  1  0  0  0
  9 10  1  0  0  0
 10 11  2  0  0  0
 10 18  1  0  0  0
 11 12  1  0  0  0
 12 13  2  0  0  0
 12 16  1  0  0  0
 13 14  1  0  0  0
 13 17  1  0  0  0
 14 15  1  0  0  0
 15 16  1  0  0  0
 17 18  2  0  0  0
 19 20  2  0  0  0
 19 29  1  0  0  0
 20 21  1  0  0  0
 20 25  1  0  0  0
 21 22  1  0  0  0
 21 23  1  0  0  0
 23 24  2  0  0  0
 25 26  2  0  0  0
 26 27  1  0  0  0
 26 28  1  0  0  0
 28 29  2  0  0  0
M  END
>  <CHROM.0>
41.01515547,-168.48802624,112.99920196,64.44153930,-30.19263604,-60.26335159
-77.57835201,-163.50738683

>  <CHROM.1>
-179.48597944,-0.13153504,33.42640911,-155.85943518,110.09837121,119.99297458
-22.07060875,20.92753166,-12.10249627,2.14915200,1.00193163,-0.25510520

>  <Name>
F3406-0445

>  <RI>
4.09296e+07

>  <Rbt.Current_Directory>
/home/adria/Escritorio/rDock_CMTR_LC/2pxcA_model/inputs_sah

>  <Rbt.Executable>
rbdock ($Id: //depot/dev/client3/rdock/2013.1/src/exe/rbdock.cxx#4 $)

>  <Rbt.Library>
libRbt.so (2013.1, Build901 2013/11/27)

>  <Rbt.Parameter_File>
/home/adria/Escritorio/rDock_2013.1_src/data/scripts/dock.prm

>  <Rbt.Receptor>
sah_rdock.prm

>  <SCORE>
-53.6549

>  <SCORE.INTER>
-17.012

>  <SCORE.INTER.CONST>
1

>  <SCORE.INTER.POLAR>
-3.08984

>  <SCORE.INTER.REPUL>
0.0762211

>  <SCORE.INTER.ROT>
6

>  <SCORE.INTER.VDW>
-18.2876

>  <SCORE.INTER.norm>
-0.60757

>  <SCORE.INTRA>
-36.7676

>  <SCORE.INTRA.DIHEDRAL>
-76.4971

>  <SCORE.INTRA.DIHEDRAL.0>
92.3122

>  <SCORE.INTRA.POLAR>
-0.346021

>  <SCORE.INTRA.POLAR.0>
0

>  <SCORE.INTRA.REPUL>
0

>  <SCORE.INTRA.REPUL.0>
0

>  <SCORE.INTRA.VDW>
2.65741

>  <SCORE.INTRA.VDW.0>
-2.56148

>  <SCORE.INTRA.norm>
-1.31313

>  <SCORE.RESTR>
0

>  <SCORE.RESTR.CAVITY>
0

>  <SCORE.RESTR.norm>
0

>  <SCORE.SYSTEM>
0.124617

>  <SCORE.SYSTEM.CONST>
0

>  <SCORE.SYSTEM.DIHEDRAL>
10.5109

>  <SCORE.SYSTEM.POLAR>
-3.55019

>  <SCORE.SYSTEM.REPUL>
0.119737

>  <SCORE.SYSTEM.VDW>
6.34113

>  <SCORE.SYSTEM.norm>
0.0044506

>  <SCORE.heavy>
28

>  <SCORE.norm>
-1.91625

$$$$
F3406-0445
  rDOCK(R)          3D
libRbt.so/2013.1/901 2013/11/27
 30 33  0  0  0  0  0  0  0  0999 V2000
  -23.9983   17.3093  -11.4595 C   0  0  0  0  0  0
  -24.1117   18.3803  -12.5247 C   0  0  0  0  0  0
  -22.8835   18.5144  -13.2485 O   0  0  0  0  0  0
  -21.8472   19.0746  -12.5674 C   0  0  0  0  0  0
  -21.8840   19.5987  -11.4716 O   0  0  0  0  0  0
  -20.6770   19.0338  -13.4581 C   0  0  0  0  0  0
  -20.1915   20.1450  -14.0577 C   0  0  0  0  0  0
  -20.7460   21.4201  -13.9969 N   0  0  0  0  0  0
  -21.8434   21.8872  -13.1614 C   0  0  0  0  0  0
  -21.4321   23.1450  -12.4206 C   0  0  0  0  0  0
  -20.2444   23.2063  -11.6670 C   0  0  0  0  0  0
  -19.9233   24.4011  -11.0453 C   0  0  0  0  0  0
  -20.7339   25.5079  -11.1339 C   0  0  0  0  0  0
  -20.2305   26.5828  -10.4713 O   0  0  0  0  0  0
  -18.9820   26.0443   -9.9944 C   0  0  0  0  0  0
  -18.8071   24.6433  -10.3032 O   0  0  0  0  0  0
  -21.9155   25.4817  -11.8363 C   0  0  0  0  0  0
  -22.2615   24.2904  -12.4806 C   0  0  0  0  0  0
  -18.9712   19.9801  -14.9127 C   0  0  0  0  0  0
  -18.4184   18.6987  -15.0966 C   0  0  0  0  0  0
  -19.0130   17.5953  -14.4914 N   0  3  0  0  0  0
  -18.6408   16.6633  -14.6219 H   0  0  0  0  0  0
  -20.1014   17.6833  -13.6792 C   0  0  0  0  0  0
  -20.5727   16.6707  -13.1680 O   0  0  0  0  0  0
  -17.2629   18.4868  -15.8526 C   0  0  0  0  0  0
  -16.6199   19.5743  -16.4273 C   0  0  0  0  0  0
  -15.1797   19.3284  -17.3345 Cl  0  0  0  0  0  0
  -17.1295   20.8591  -16.2569 C   0  0  0  0  0  0
  -18.2983   21.0606  -15.5067 C   0  0  0  0  0  0
  -20.1982   22.1552  -14.4393 H   0  0  0  0  0  0
  1  2  1  0  0  0
  2  3  1  0  0  0
  3  4  1  0  0  0
  4  5  2  0  0  0
  4  6  1  0  0  0
  6  7  2  0  0  0
  6 23  1  0  0  0
  7  8  1  0  0  0
  7 19  1  0  0  0
  8  9  1  0  0  0
  8 30  1  0  0  0
  9 10  1  0  0  0
 10 11  2  0  0  0
 10 18  1  0  0  0
 11 12  1  0  0  0
 12 13  2  0  0  0
 12 16  1  0  0  0
 13 14  1  0  0  0
 13 17  1  0  0  0
 14 15  1  0  0  0
 15 16  1  0  0  0
 17 18  2  0  0  0
 19 20  2  0  0  0
 19 29  1  0  0  0
 20 21  1  0  0  0
 20 25  1  0  0  0
 21 22  1  0  0  0
 21 23  1  0  0  0
 23 24  2  0  0  0
 25 26  2  0  0  0
 26 27  1  0  0  0
 26 28  1  0  0  0
 28 29  2  0  0  0
M  END
>  <CHROM.0>
-176.60938109,65.44706014,77.22664413,67.49120623,-30.52157354,-174.82286034
-156.28977085,-46.00355019

>  <CHROM.1>
-70.88912693,-8.43310384,106.84691255,8.61166488,128.70677013,-51.74988703
-19.93351733,20.91489903,-13.37681284,1.12188666,-0.56110148,-2.74156642

>  <Name>
F3406-0445

>  <RI>
4.09296e+07

>  <Rbt.Current_Directory>
/home/adria/Escritorio/rDock_CMTR_LC/2pxcA_model/inputs_sah

>  <Rbt.Executable>
rbdock ($Id: //depot/dev/client3/rdock/2013.1/src/exe/rbdock.cxx#4 $)

>  <Rbt.Library>
libRbt.so (2013.1, Build901 2013/11/27)

>  <Rbt.Parameter_File>
/home/adria/Escritorio/rDock_2013.1_src/data/scripts/dock.prm

>  <Rbt.Receptor>
sah_rdock.prm

>  <SCORE>
-57.7429

>  <SCORE.INTER>
-16.7957

>  <SCORE.INTER.CONST>
1

>  <SCORE.INTER.POLAR>
-0.938083

>  <SCORE.INTER.REPUL>
0

>  <SCORE.INTER.ROT>
6

>  <SCORE.INTER.VDW>
-25.0062

>  <SCORE.INTER.norm>
-0.599847

>  <SCORE.INTRA>
-36.0933

>  <SCORE.INTRA.DIHEDRAL>
-77.4423

>  <SCORE.INTRA.DIHEDRAL.0>
92.3122

>  <SCORE.INTRA.POLAR>
0

>  <SCORE.INTRA.POLAR.0>
0

>  <SCORE.INTRA.REPUL>
0

>  <SCORE.INTRA.REPUL.0>
0

>  <SCORE.INTRA.VDW>
2.62779

>  <SCORE.INTRA.VDW.0>
-2.56148

>  <SCORE.INTRA.norm>
-1.28905

>  <SCORE.RESTR>
0

>  <SCORE.RESTR.CAVITY>
0

>  <SCORE.RESTR.norm>
0

>  <SCORE.SYSTEM>
-4.85388

>  <SCORE.SYSTEM.CONST>
0

>  <SCORE.SYSTEM.DIHEDRAL>
8.42672

>  <SCORE.SYSTEM.POLAR>
-3.44602

>  <SCORE.SYSTEM.REPUL>
0.0219597

>  <SCORE.SYSTEM.VDW>
2.53944

>  <SCORE.SYSTEM.norm>
-0.173353

>  <SCORE.heavy>
28

>  <SCORE.norm>
-2.06225

$$$$
F3406-0445
  rDOCK(R)          3D
libRbt.so/2013.1/901 2013/11/27
 30 33  0  0  0  0  0  0  0  0999 V2000
  -18.3302   13.5689  -14.3576 C   0  0  0  0  0  0
  -18.1709   13.6999  -15.8582 C   0  0  0  0  0  0
  -17.5865   14.9609  -16.2027 O   0  0  0  0  0  0
  -17.3373   15.1621  -17.5253 C   0  0  0  0  0  0
  -17.6403   14.4348  -18.4505 O   0  0  0  0  0  0
  -16.5213   16.3820  -17.6270 C   0  0  0  0  0  0
  -16.6492   17.4068  -16.7532 C   0  0  0  0  0  0
  -17.5838   17.4985  -15.7260 N   0  0  0  0  0  0
  -17.9471   18.6690  -14.9394 C   0  0  0  0  0  0
  -19.1609   18.3621  -14.0835 C   0  0  0  0  0  0
  -19.5237   19.1756  -12.9932 C   0  0  0  0  0  0
  -20.6638   18.8460  -12.2799 C   0  0  0  0  0  0
  -21.4297   17.7498  -12.5988 C   0  0  0  0  0  0
  -22.5149   17.6137  -11.7915 O   0  0  0  0  0  0
  -22.3762   18.7792  -10.9556 C   0  0  0  0  0  0
  -21.1721   19.5336  -11.2195 O   0  0  0  0  0  0
  -21.0950   16.9143  -13.6380 C   0  0  0  0  0  0
  -19.9527   17.2270  -14.3805 C   0  0  0  0  0  0
  -15.7344   18.5796  -16.9397 C   0  0  0  0  0  0
  -14.8326   18.5937  -18.0204 C   0  0  0  0  0  0
  -14.8034   17.5246  -18.9112 N   0  3  0  0  0  0
  -14.1733   17.5206  -19.7031 H   0  0  0  0  0  0
  -15.5846   16.4183  -18.7783 C   0  0  0  0  0  0
  -15.5035   15.5045  -19.5951 O   0  0  0  0  0  0
  -13.9318   19.6415  -18.2259 C   0  0  0  0  0  0
  -13.9038   20.6978  -17.3261 C   0  0  0  0  0  0
  -12.7778   21.9780  -17.5525 Cl  0  0  0  0  0  0
  -14.7718   20.7130  -16.2372 C   0  0  0  0  0  0
  -15.6824   19.6624  -16.0463 C   0  0  0  0  0  0
  -18.2239   16.7110  -15.6474 H   0  0  0  0  0  0
  1  2  1  0  0  0
  2  3  1  0  0  0
  3  4  1  0  0  0
  4  5  2  0  0  0
  4  6  1  0  0  0
  6  7  2  0  0  0
  6 23  1  0  0  0
  7  8  1  0  0  0
  7 19  1  0  0  0
  8  9  1  0  0  0
  8 30  1  0  0  0
  9 10  1  0  0  0
 10 11  2  0  0  0
 10 18  1  0  0  0
 11 12  1  0  0  0
 12 13  2  0  0  0
 12 16  1  0  0  0
 13 14  1  0  0  0
 13 17  1  0  0  0
 14 15  1  0  0  0
 15 16  1  0  0  0
 17 18  2  0  0  0
 19 20  2  0  0  0
 19 29  1  0  0  0
 20 21  1  0  0  0
 20 25  1  0  0  0
 21 22  1  0  0  0
 21 23  1  0  0  0
 23 24  2  0  0  0
 25 26  2  0  0  0
 26 27  1  0  0  0
 26 28  1  0  0  0
 28 29  2  0  0  0
M  END
>  <CHROM.0>
-56.58809101,68.00449396,-114.16603693,69.34885170,-30.65354256,-155.12312338
-156.43493535,-156.52957585

>  <CHROM.1>
176.97674815,5.64898053,-31.94243711,-166.31286287,171.05023678,163.73488966
-17.40474531,17.84906012,-15.76069699,3.00992176,0.68773618,0.46797473

>  <Name>
F3406-0445

>  <RI>
4.09296e+07

>  <Rbt.Current_Directory>
/home/adria/Escritorio/rDock_CMTR_LC/2pxcA_model/inputs_sah

>  <Rbt.Executable>
rbdock ($Id: //depot/dev/client3/rdock/2013.1/src/exe/rbdock.cxx#4 $)

>  <Rbt.Library>
libRbt.so (2013.1, Build901 2013/11/27)

>  <Rbt.Parameter_File>
/home/adria/Escritorio/rDock_2013.1_src/data/scripts/dock.prm

>  <Rbt.Receptor>
sah_rdock.prm

>  <SCORE>
-58.3872

>  <SCORE.INTER>
-17.0607

>  <SCORE.INTER.CONST>
1

>  <SCORE.INTER.POLAR>
-0.509099

>  <SCORE.INTER.REPUL>
0

>  <SCORE.INTER.ROT>
6

>  <SCORE.INTER.VDW>
-26.7297

>  <SCORE.INTER.norm>
-0.609309

>  <SCORE.INTRA>
-36.1822

>  <SCORE.INTRA.DIHEDRAL>
-83.8055

>  <SCORE.INTRA.DIHEDRAL.0>
92.3122

>  <SCORE.INTRA.POLAR>
-0.358523

>  <SCORE.INTRA.POLAR.0>
0

>  <SCORE.INTRA.REPUL>
0

>  <SCORE.INTRA.REPUL.0>
0

>  <SCORE.INTRA.VDW>
6.93949

>  <SCORE.INTRA.VDW.0>
-2.56148

>  <SCORE.INTRA.norm>
-1.29222

>  <SCORE.RESTR>
0

>  <SCORE.RESTR.CAVITY>
0

>  <SCORE.RESTR.norm>
0

>  <SCORE.SYSTEM>
-5.14428

>  <SCORE.SYSTEM.CONST>
0

>  <SCORE.SYSTEM.DIHEDRAL>
11.0755

>  <SCORE.SYSTEM.POLAR>
-4.1569

>  <SCORE.SYSTEM.VDW>
3.45143

>  <SCORE.SYSTEM.norm>
-0.183724

>  <SCORE.heavy>
28

>  <SCORE.norm>
-2.08526

$$$$
F3406-0445
  rDOCK(R)          3D
libRbt.so/2013.1/901 2013/11/27
 30 33  0  0  0  0  0  0  0  0999 V2000
  -26.1806   20.9802  -15.8674 C   0  0  0  0  0  0
  -26.8107   22.1363  -15.1185 C   0  0  0  0  0  0
  -25.8527   22.7801  -14.2712 O   0  0  0  0  0  0
  -25.4480   22.0721  -13.1818 C   0  0  0  0  0  0
  -25.9477   21.0583  -12.7354 O   0  0  0  0  0  0
  -24.3483   22.8287  -12.5632 C   0  0  0  0  0  0
  -23.1116   22.3024  -12.4093 C   0  0  0  0  0  0
  -22.7288   21.0004  -12.7180 N   0  0  0  0  0  0
  -23.4629   20.0021  -13.4830 C   0  0  0  0  0  0
  -22.5229   19.2787  -14.4281 C   0  0  0  0  0  0
  -21.2253   19.7567  -14.6924 C   0  0  0  0  0  0
  -20.4166   19.0222  -15.5432 C   0  0  0  0  0  0
  -20.8514   17.8617  -16.1383 C   0  0  0  0  0  0
  -19.9009   17.2829  -16.9189 O   0  0  0  0  0  0
  -18.7960   18.1839  -16.7100 C   0  0  0  0  0  0
  -19.1331   19.3225  -15.8863 O   0  0  0  0  0  0
  -22.1203   17.3757  -15.9286 C   0  0  0  0  0  0
  -22.9564   18.0930  -15.0682 C   0  0  0  0  0  0
  -22.0659   23.1863  -11.7990 C   0  0  0  0  0  0
  -22.4127   24.4822  -11.3726 C   0  0  0  0  0  0
  -23.7234   24.9291  -11.5126 N   0  3  0  0  0  0
  -23.9978   25.8516  -11.1996 H   0  0  0  0  0  0
  -24.7096   24.1876  -12.0869 C   0  0  0  0  0  0
  -25.8450   24.6449  -12.1883 O   0  0  0  0  0  0
  -21.4752   25.3640  -10.8293 C   0  0  0  0  0  0
  -20.1504   24.9639  -10.7230 C   0  0  0  0  0  0
  -18.9823   26.0525  -10.0838 Cl  0  0  0  0  0  0
  -19.7665   23.6940  -11.1461 C   0  0  0  0  0  0
  -20.7179   22.8102  -11.6784 C   0  0  0  0  0  0
  -21.7461   20.7862  -12.5614 H   0  0  0  0  0  0
  1  2  1  0  0  0
  2  3  1  0  0  0
  3  4  1  0  0  0
  4  5  2  0  0  0
  4  6  1  0  0  0
  6  7  2  0  0  0
  6 23  1  0  0  0
  7  8  1  0  0  0
  7 19  1  0  0  0
  8  9  1  0  0  0
  8 30  1  0  0  0
  9 10  1  0  0  0
 10 11  2  0  0  0
 10 18  1  0  0  0
 11 12  1  0  0  0
 12 13  2  0  0  0
 12 16  1  0  0  0
 13 14  1  0  0  0
 13 17  1  0  0  0
 14 15  1  0  0  0
 15 16  1  0  0  0
 17 18  2  0  0  0
 19 20  2  0  0  0
 19 29  1  0  0  0
 20 21  1  0  0  0
 20 25  1  0  0  0
 21 22  1  0  0  0
 21 23  1  0  0  0
 23 24  2  0  0  0
 25 26  2  0  0  0
 26 27  1  0  0  0
 26 28  1  0  0  0
 28 29  2  0  0  0
M  END
>  <CHROM.0>
-48.86354097,64.77926471,-8.38551969,-60.76718034,-29.91042643,-59.33167773
-36.49287976,-162.98694498

>  <CHROM.1>
-70.37781461,-12.24259717,-120.44107157,12.32695429,137.40277529,-12.95904839
-22.41351505,21.84570621,-13.33343294,1.53807516,0.10114257,-2.49737709

>  <Name>
F3406-0445

>  <RI>
4.09296e+07

>  <Rbt.Current_Directory>
/home/adria/Escritorio/rDock_CMTR_LC/2pxcA_model/inputs_sah

>  <Rbt.Executable>
rbdock ($Id: //depot/dev/client3/rdock/2013.1/src/exe/rbdock.cxx#4 $)

>  <Rbt.Library>
libRbt.so (2013.1, Build901 2013/11/27)

>  <Rbt.Parameter_File>
/home/adria/Escritorio/rDock_2013.1_src/data/scripts/dock.prm

>  <Rbt.Receptor>
sah_rdock.prm

>  <SCORE>
-51.7338

>  <SCORE.INTER>
-9.9406

>  <SCORE.INTER.CONST>
1

>  <SCORE.INTER.POLAR>
-1.49757

>  <SCORE.INTER.REPUL>
0.107268

>  <SCORE.INTER.ROT>
6

>  <SCORE.INTER.VDW>
-16.7852

>  <SCORE.INTER.norm>
-0.355022

>  <SCORE.INTRA>
-35.3692

>  <SCORE.INTRA.DIHEDRAL>
-77.8388

>  <SCORE.INTRA.DIHEDRAL.0>
92.3122

>  <SCORE.INTRA.POLAR>
0

>  <SCORE.INTRA.POLAR.0>
0

>  <SCORE.INTRA.REPUL>
0

>  <SCORE.INTRA.REPUL.0>
0

>  <SCORE.INTRA.VDW>
3.55024

>  <SCORE.INTRA.VDW.0>
-2.56148

>  <SCORE.INTRA.norm>
-1.26318

>  <SCORE.RESTR>
0

>  <SCORE.RESTR.CAVITY>
0

>  <SCORE.RESTR.norm>
0

>  <SCORE.SYSTEM>
-6.42402

>  <SCORE.SYSTEM.CONST>
0

>  <SCORE.SYSTEM.DIHEDRAL>
9.36793

>  <SCORE.SYSTEM.POLAR>
-4.32788

>  <SCORE.SYSTEM.VDW>
3.6068

>  <SCORE.SYSTEM.norm>
-0.229429

>  <SCORE.heavy>
28

>  <SCORE.norm>
-1.84763

$$$$
F3406-0445
  rDOCK(R)          3D
libRbt.so/2013.1/901 2013/11/27
 30 33  0  0  0  0  0  0  0  0999 V2000
  -23.8476   19.9784   -8.3186 C   0  0  0  0  0  0
  -24.3432   20.0064   -9.7497 C   0  0  0  0  0  0
  -23.2972   19.6510  -10.6607 O   0  0  0  0  0  0
  -23.5937   19.7645  -11.9839 C   0  0  0  0  0  0
  -24.6497   20.1124  -12.4746 O   0  0  0  0  0  0
  -22.4240   19.2733  -12.7289 C   0  0  0  0  0  0
  -21.5751   20.1111  -13.3672 C   0  0  0  0  0  0
  -21.7160   21.4907  -13.4846 N   0  0  0  0  0  0
  -22.6685   22.3606  -12.8089 C   0  0  0  0  0  0
  -21.9356   23.4942  -12.1177 C   0  0  0  0  0  0
  -20.6774   23.3047  -11.5150 C   0  0  0  0  0  0
  -20.0587   24.3972  -10.9312 C   0  0  0  0  0  0
  -20.6438   25.6412  -10.9142 C   0  0  0  0  0  0
  -19.8660   26.5799  -10.3129 O   0  0  0  0  0  0
  -18.6979   25.7982   -9.9952 C   0  0  0  0  0  0
  -18.8364   24.3992  -10.3302 O   0  0  0  0  0  0
  -21.8832   25.8625  -11.4667 C   0  0  0  0  0  0
  -22.5281   24.7788  -12.0698 C   0  0  0  0  0  0
  -20.3988   19.4917  -14.0599 C   0  0  0  0  0  0
  -20.2515   18.0918  -14.0638 C   0  0  0  0  0  0
  -21.2020   17.2943  -13.4331 N   0  3  0  0  0  0
  -21.1234   16.2853  -13.4361 H   0  0  0  0  0  0
  -22.2732   17.7967  -12.7608 C   0  0  0  0  0  0
  -23.0713   17.0375  -12.2173 O   0  0  0  0  0  0
  -19.1590   17.4589  -14.6618 C   0  0  0  0  0  0
  -18.1699   18.2307  -15.2554 C   0  0  0  0  0  0
  -16.8055   17.4632  -15.9677 Cl  0  0  0  0  0  0
  -18.2741   19.6194  -15.2602 C   0  0  0  0  0  0
  -19.3819   20.2457  -14.6686 C   0  0  0  0  0  0
  -20.9431   21.9705  -13.9412 H   0  0  0  0  0  0
  1  2  1  0  0  0
  2  3  1  0  0  0
  3  4  1  0  0  0
  4  5  2  0  0  0
  4  6  1  0  0  0
  6  7  2  0  0  0
  6 23  1  0  0  0
  7  8  1  0  0  0
  7 19  1  0  0  0
  8  9  1  0  0  0
  8 30  1  0  0  0
  9 10  1  0  0  0
 10 11  2  0  0  0
 10 18  1  0  0  0
 11 12  1  0  0  0
 12 13  2  0  0  0
 12 16  1  0  0  0
 13 14  1  0  0  0
 13 17  1  0  0  0
 14 15  1  0  0  0
 15 16  1  0  0  0
 17 18  2  0  0  0
 19 20  2  0  0  0
 19 29  1  0  0  0
 20 21  1  0  0  0
 20 25  1  0  0  0
 21 22  1  0  0  0
 21 23  1  0  0  0
 23 24  2  0  0  0
 25 26  2  0  0  0
 26 27  1  0  0  0
 26 28  1  0  0  0
 28 29  2  0  0  0
M  END
>  <CHROM.0>
-62.30605590,65.95741254,111.43817588,-60.97192838,-31.09508474,-175.90152604
-155.38864413,-160.24291578

>  <CHROM.1>
-174.03719475,-1.25473124,-105.67960707,9.64415432,126.78440831,-36.01616173
-20.95793968,20.87888060,-12.53629789,1.83215300,0.51024012,0.39817377

>  <Name>
F3406-0445

>  <RI>
4.09296e+07

>  <Rbt.Current_Directory>
/home/adria/Escritorio/rDock_CMTR_LC/2pxcA_model/inputs_sah

>  <Rbt.Executable>
rbdock ($Id: //depot/dev/client3/rdock/2013.1/src/exe/rbdock.cxx#4 $)

>  <Rbt.Library>
libRbt.so (2013.1, Build901 2013/11/27)

>  <Rbt.Parameter_File>
/home/adria/Escritorio/rDock_2013.1_src/data/scripts/dock.prm

>  <Rbt.Receptor>
sah_rdock.prm

>  <SCORE>
-58.2601

>  <SCORE.INTER>
-14.4346

>  <SCORE.INTER.CONST>
1

>  <SCORE.INTER.POLAR>
-0.938083

>  <SCORE.INTER.REPUL>
0

>  <SCORE.INTER.ROT>
6

>  <SCORE.INTER.VDW>
-22.6451

>  <SCORE.INTER.norm>
-0.515522

>  <SCORE.INTRA>
-36.8801

>  <SCORE.INTRA.DIHEDRAL>
-77.1594

>  <SCORE.INTRA.DIHEDRAL.0>
92.3122

>  <SCORE.INTRA.POLAR>
0

>  <SCORE.INTRA.POLAR.0>
0

>  <SCORE.INTRA.REPUL>
0

>  <SCORE.INTRA.REPUL.0>
0

>  <SCORE.INTRA.VDW>
1.69959

>  <SCORE.INTRA.VDW.0>
-2.56148

>  <SCORE.INTRA.norm>
-1.31715

>  <SCORE.RESTR>
0

>  <SCORE.RESTR.CAVITY>
0

>  <SCORE.RESTR.norm>
0

>  <SCORE.SYSTEM>
-6.94532

>  <SCORE.SYSTEM.CONST>
0

>  <SCORE.SYSTEM.DIHEDRAL>
8.90936

>  <SCORE.SYSTEM.POLAR>
-4.37452

>  <SCORE.SYSTEM.VDW>
3.47338

>  <SCORE.SYSTEM.norm>
-0.248047

>  <SCORE.heavy>
28

>  <SCORE.norm>
-2.08072

$$$$
F3406-0445
  rDOCK(R)          3D
libRbt.so/2013.1/901 2013/11/27
 30 33  0  0  0  0  0  0  0  0999 V2000
  -14.2714   18.1198  -18.0347 C   0  0  0  0  0  0
  -14.7733   19.4433  -17.4952 C   0  0  0  0  0  0
  -16.0045   19.2724  -16.7844 O   0  0  0  0  0  0
  -16.6145   20.4139  -16.3639 C   0  0  0  0  0  0
  -16.2053   21.5524  -16.4781 O   0  0  0  0  0  0
  -17.8247   20.0084  -15.6321 C   0  0  0  0  0  0
  -18.1604   18.7090  -15.4629 C   0  0  0  0  0  0
  -17.4938   17.6118  -16.0001 N   0  0  0  0  0  0
  -17.9513   16.2319  -16.0856 C   0  0  0  0  0  0
  -17.2780   15.5336  -17.2514 C   0  0  0  0  0  0
  -15.9133   15.1890  -17.2208 C   0  0  0  0  0  0
  -15.3800   14.5249  -18.3125 C   0  0  0  0  0  0
  -16.1388   14.2124  -19.4155 C   0  0  0  0  0  0
  -15.4340   13.5439  -20.3664 O   0  0  0  0  0  0
  -14.1532   13.4239  -19.7173 C   0  0  0  0  0  0
  -14.0934   14.0960  -18.4393 O   0  0  0  0  0  0
  -17.4676   14.5557  -19.4970 C   0  0  0  0  0  0
  -18.0346   15.2205  -18.4059 C   0  0  0  0  0  0
  -19.3977   18.4229  -14.6663 C   0  0  0  0  0  0
  -20.1735   19.4913  -14.1782 C   0  0  0  0  0  0
  -19.7915   20.8026  -14.4460 N   0  3  0  0  0  0
  -20.3423   21.5854  -14.1172 H   0  0  0  0  0  0
  -18.6638   21.1278  -15.1348 C   0  0  0  0  0  0
  -18.3785   22.3065  -15.3293 O   0  0  0  0  0  0
  -21.3163   19.2883  -13.4008 C   0  0  0  0  0  0
  -21.6940   17.9929  -13.0760 C   0  0  0  0  0  0
  -23.0819   17.7328  -12.0940 Cl  0  0  0  0  0  0
  -20.9443   16.9106  -13.5296 C   0  0  0  0  0  0
  -19.8052   17.1237  -14.3211 C   0  0  0  0  0  0
  -16.6816   17.8326  -16.5726 H   0  0  0  0  0  0
  1  2  1  0  0  0
  2  3  1  0  0  0
  3  4  1  0  0  0
  4  5  2  0  0  0
  4  6  1  0  0  0
  6  7  2  0  0  0
  6 23  1  0  0  0
  7  8  1  0  0  0
  7 19  1  0  0  0
  8  9  1  0  0  0
  8 30  1  0  0  0
  9 10  1  0  0  0
 10 11  2  0  0  0
 10 18  1  0  0  0
 11 12  1  0  0  0
 12 13  2  0  0  0
 12 16  1  0  0  0
 13 14  1  0  0  0
 13 17  1  0  0  0
 14 15  1  0  0  0
 15 16  1  0  0  0
 17 18  2  0  0  0
 19 20  2  0  0  0
 19 29  1  0  0  0
 20 21  1  0  0  0
 20 25  1  0  0  0
 21 22  1  0  0  0
 21 23  1  0  0  0
 23 24  2  0  0  0
 25 26  2  0  0  0
 26 27  1  0  0  0
 26 28  1  0  0  0
 28 29  2  0  0  0
M  END
>  <CHROM.0>
-59.66272363,-169.73940853,112.11946206,-143.36744191,168.42061279,-172.86127252
-156.39259179,-161.39191493

>  <CHROM.1>
-173.98072354,-3.15962493,0.50129615,-166.13005521,153.55081170,71.48090847
-17.93107810,17.63074679,-16.15095962,-0.66781458,0.61886241,0.27810857

>  <Name>
F3406-0445

>  <RI>
4.09296e+07

>  <Rbt.Current_Directory>
/home/adria/Escritorio/rDock_CMTR_LC/2pxcA_model/inputs_sah

>  <Rbt.Executable>
rbdock ($Id: //depot/dev/client3/rdock/2013.1/src/exe/rbdock.cxx#4 $)

>  <Rbt.Library>
libRbt.so (2013.1, Build901 2013/11/27)

>  <Rbt.Parameter_File>
/home/adria/Escritorio/rDock_2013.1_src/data/scripts/dock.prm

>  <Rbt.Receptor>
sah_rdock.prm

>  <SCORE>
-49.3025

>  <SCORE.INTER>
-12.2063

>  <SCORE.INTER.CONST>
1

>  <SCORE.INTER.POLAR>
-0.221122

>  <SCORE.INTER.REPUL>
0

>  <SCORE.INTER.ROT>
6

>  <SCORE.INTER.VDW>
-22.8545

>  <SCORE.INTER.norm>
-0.43594

>  <SCORE.INTRA>
-39.2022

>  <SCORE.INTRA.DIHEDRAL>
-87.2726

>  <SCORE.INTRA.DIHEDRAL.0>
92.3122

>  <SCORE.INTRA.POLAR>
-0.475269

>  <SCORE.INTRA.POLAR.0>
0

>  <SCORE.INTRA.REPUL>
0

>  <SCORE.INTRA.REPUL.0>
0

>  <SCORE.INTRA.VDW>
6.04997

>  <SCORE.INTRA.VDW.0>
-2.56148

>  <SCORE.INTRA.norm>
-1.40008

>  <SCORE.RESTR>
0

>  <SCORE.RESTR.CAVITY>
0

>  <SCORE.RESTR.norm>
0

>  <SCORE.SYSTEM>
2.10605

>  <SCORE.SYSTEM.CONST>
0

>  <SCORE.SYSTEM.DIHEDRAL>
11.2458

>  <SCORE.SYSTEM.POLAR>
-4.28215

>  <SCORE.SYSTEM.VDW>
11.0425

>  <SCORE.SYSTEM.norm>
0.075216

>  <SCORE.heavy>
28

>  <SCORE.norm>
-1.7608

$$$$
F3406-0445
  rDOCK(R)          3D
libRbt.so/2013.1/901 2013/11/27
 30 33  0  0  0  0  0  0  0  0999 V2000
  -25.8025   18.2397  -12.4229 C   0  0  0  0  0  0
  -25.7013   18.5474  -13.9027 C   0  0  0  0  0  0
  -24.3427   18.7928  -14.2826 O   0  0  0  0  0  0
  -24.1360   19.1083  -15.5901 C   0  0  0  0  0  0
  -24.9664   19.1557  -16.4761 O   0  0  0  0  0  0
  -22.6849   19.2733  -15.7670 C   0  0  0  0  0  0
  -21.8609   19.5450  -14.7291 C   0  0  0  0  0  0
  -22.2480   19.7833  -13.4136 N   0  0  0  0  0  0
  -21.4605   20.3583  -12.3320 C   0  0  0  0  0  0
  -21.9795   21.7420  -11.9916 C   0  0  0  0  0  0
  -21.9231   22.8027  -12.9157 C   0  0  0  0  0  0
  -22.4464   24.0283  -12.5399 C   0  0  0  0  0  0
  -22.9981   24.2335  -11.2975 C   0  0  0  0  0  0
  -23.4724   25.4970  -11.1348 O   0  0  0  0  0  0
  -23.2031   26.0549  -12.4358 C   0  0  0  0  0  0
  -22.4982   25.1484  -13.3132 O   0  0  0  0  0  0
  -23.0474   23.2323  -10.3564 C   0  0  0  0  0  0
  -22.5331   21.9819  -10.7111 C   0  0  0  0  0  0
  -20.3967   19.6531  -15.0315 C   0  0  0  0  0  0
  -19.9489   19.5213  -16.3595 C   0  0  0  0  0  0
  -20.8683   19.3007  -17.3810 N   0  3  0  0  0  0
  -20.5698   19.2174  -18.3444 H   0  0  0  0  0  0
  -22.2051   19.1614  -17.1675 C   0  0  0  0  0  0
  -22.9626   18.9589  -18.1129 O   0  0  0  0  0  0
  -18.5948   19.5774  -16.6986 C   0  0  0  0  0  0
  -17.6512   19.7468  -15.6952 C   0  0  0  0  0  0
  -15.9796   19.7866  -16.0979 Cl  0  0  0  0  0  0
  -18.0547   19.8681  -14.3678 C   0  0  0  0  0  0
  -19.4181   19.8238  -14.0383 C   0  0  0  0  0  0
  -23.2494   19.7336  -13.2381 H   0  0  0  0  0  0
  1  2  1  0  0  0
  2  3  1  0  0  0
  3  4  1  0  0  0
  4  5  2  0  0  0
  4  6  1  0  0  0
  6  7  2  0  0  0
  6 23  1  0  0  0
  7  8  1  0  0  0
  7 19  1  0  0  0
  8  9  1  0  0  0
  8 30  1  0  0  0
  9 10  1  0  0  0
 10 11  2  0  0  0
 10 18  1  0  0  0
 11 12  1  0  0  0
 12 13  2  0  0  0
 12 16  1  0  0  0
 13 14  1  0  0  0
 13 17  1  0  0  0
 14 15  1  0  0  0
 15 16  1  0  0  0
 17 18  2  0  0  0
 19 20  2  0  0  0
 19 29  1  0  0  0
 20 21  1  0  0  0
 20 25  1  0  0  0
 21 22  1  0  0  0
 21 23  1  0  0  0
 23 24  2  0  0  0
 25 26  2  0  0  0
 26 27  1  0  0  0
 26 28  1  0  0  0
 28 29  2  0  0  0
M  END
>  <CHROM.0>
-60.86519166,-73.93738253,-44.22950788,62.03460171,34.14008673,59.17690073
-156.50292452,-55.53975347

>  <CHROM.1>
-178.67937569,-2.95823618,-21.75261996,-165.28879146,109.95637909,-64.15067547
-21.67614395,20.77239057,-14.27438019,2.25124726,0.19768320,0.67490661

>  <Name>
F3406-0445

>  <RI>
4.09296e+07

>  <Rbt.Current_Directory>
/home/adria/Escritorio/rDock_CMTR_LC/2pxcA_model/inputs_sah

>  <Rbt.Executable>
rbdock ($Id: //depot/dev/client3/rdock/2013.1/src/exe/rbdock.cxx#4 $)

>  <Rbt.Library>
libRbt.so (2013.1, Build901 2013/11/27)

>  <Rbt.Parameter_File>
/home/adria/Escritorio/rDock_2013.1_src/data/scripts/dock.prm

>  <Rbt.Receptor>
sah_rdock.prm

>  <SCORE>
-40.3376

>  <SCORE.INTER>
-7.53018

>  <SCORE.INTER.CONST>
1

>  <SCORE.INTER.POLAR>
-2.16643

>  <SCORE.INTER.REPUL>
1.19171

>  <SCORE.INTER.ROT>
6

>  <SCORE.INTER.VDW>
-17.5228

>  <SCORE.INTER.norm>
-0.268935

>  <SCORE.INTRA>
-39.0683

>  <SCORE.INTRA.DIHEDRAL>
-85.1982

>  <SCORE.INTRA.DIHEDRAL.0>
92.3122

>  <SCORE.INTRA.POLAR>
-0.438227

>  <SCORE.INTRA.POLAR.0>
0

>  <SCORE.INTRA.REPUL>
0

>  <SCORE.INTRA.REPUL.0>
0

>  <SCORE.INTRA.VDW>
5.02074

>  <SCORE.INTRA.VDW.0>
-2.56148

>  <SCORE.INTRA.norm>
-1.3953

>  <SCORE.RESTR>
0

>  <SCORE.RESTR.CAVITY>
0

>  <SCORE.RESTR.norm>
0

>  <SCORE.SYSTEM>
6.26092

>  <SCORE.SYSTEM.CONST>
0

>  <SCORE.SYSTEM.DIHEDRAL>
8.80784

>  <SCORE.SYSTEM.POLAR>
-3.44491

>  <SCORE.SYSTEM.REPUL>
0.0401664

>  <SCORE.SYSTEM.VDW>
13.3689

>  <SCORE.SYSTEM.norm>
0.223604

>  <SCORE.heavy>
28

>  <SCORE.norm>
-1.44063

$$$$
F3406-0445
  rDOCK(R)          3D
libRbt.so/2013.1/901 2013/11/27
 30 33  0  0  0  0  0  0  0  0999 V2000
  -23.4259   20.8153   -8.2030 C   0  0  0  0  0  0
  -24.0414   21.0355   -9.5694 C   0  0  0  0  0  0
  -23.2083   20.4923  -10.5996 O   0  0  0  0  0  0
  -23.1960   19.1356  -10.7042 C   0  0  0  0  0  0
  -23.8303   18.3401  -10.0395 O   0  0  0  0  0  0
  -22.1745   18.7922  -11.7057 C   0  0  0  0  0  0
  -21.1271   19.6059  -11.9718 C   0  0  0  0  0  0
  -20.9098   20.8690  -11.4293 N   0  0  0  0  0  0
  -19.9554   21.8822  -11.8574 C   0  0  0  0  0  0
  -20.5686   23.2626  -11.7212 C   0  0  0  0  0  0
  -21.4993   23.7556  -12.6555 C   0  0  0  0  0  0
  -22.0373   25.0138  -12.4439 C   0  0  0  0  0  0
  -21.6770   25.7869  -11.3657 C   0  0  0  0  0  0
  -22.3332   26.9768  -11.3291 O   0  0  0  0  0  0
  -23.1888   26.8476  -12.4813 C   0  0  0  0  0  0
  -22.9643   25.6309  -13.2282 O   0  0  0  0  0  0
  -20.7513   25.3543  -10.4458 C   0  0  0  0  0  0
  -20.1970   24.0845  -10.6303 C   0  0  0  0  0  0
  -20.1329   19.1274  -12.9866 C   0  0  0  0  0  0
  -20.3466   17.9023  -13.6461 C   0  0  0  0  0  0
  -21.4818   17.1502  -13.3580 N   0  3  0  0  0  0
  -21.6625   16.2738  -13.8307 H   0  0  0  0  0  0
  -22.4038   17.5141  -12.4254 C   0  0  0  0  0  0
  -23.3800   16.7998  -12.2123 O   0  0  0  0  0  0
  -19.4389   17.3875  -14.5749 C   0  0  0  0  0  0
  -18.2738   18.0912  -14.8459 C   0  0  0  0  0  0
  -17.1349   17.4516  -15.9648 Cl  0  0  0  0  0  0
  -18.0210   19.3007  -14.2036 C   0  0  0  0  0  0
  -18.9451   19.8166  -13.2819 C   0  0  0  0  0  0
  -21.6295   21.1982  -10.7891 H   0  0  0  0  0  0
  1  2  1  0  0  0
  2  3  1  0  0  0
  3  4  1  0  0  0
  4  5  2  0  0  0
  4  6  1  0  0  0
  6  7  2  0  0  0
  6 23  1  0  0  0
  7  8  1  0  0  0
  7 19  1  0  0  0
  8  9  1  0  0  0
  8 30  1  0  0  0
  9 10  1  0  0  0
 10 11  2  0  0  0
 10 18  1  0  0  0
 11 12  1  0  0  0
 12 13  2  0  0  0
 12 16  1  0  0  0
 13 14  1  0  0  0
 13 17  1  0  0  0
 14 15  1  0  0  0
 15 16  1  0  0  0
 17 18  2  0  0  0
 19 20  2  0  0  0
 19 29  1  0  0  0
 20 21  1  0  0  0
 20 25  1  0  0  0
 21 22  1  0  0  0
 21 23  1  0  0  0
 23 24  2  0  0  0
 25 26  2  0  0  0
 26 27  1  0  0  0
 26 28  1  0  0  0
 28 29  2  0  0  0
M  END
>  <CHROM.0>
-60.33208447,-72.89959787,110.97353435,63.55003107,168.16848353,59.00540508
82.64261046,-157.86890368

>  <CHROM.1>
73.66196193,1.50745689,25.38418265,-167.27441827,142.60787613,-77.38204628
-21.16622058,20.84211047,-12.29820939,2.04261746,0.71128119,0.04947327

>  <Name>
F3406-0445

>  <RI>
4.09296e+07

>  <Rbt.Current_Directory>
/home/adria/Escritorio/rDock_CMTR_LC/2pxcA_model/inputs_sah

>  <Rbt.Executable>
rbdock ($Id: //depot/dev/client3/rdock/2013.1/src/exe/rbdock.cxx#4 $)

>  <Rbt.Library>
libRbt.so (2013.1, Build901 2013/11/27)

>  <Rbt.Parameter_File>
/home/adria/Escritorio/rDock_2013.1_src/data/scripts/dock.prm

>  <Rbt.Receptor>
sah_rdock.prm

>  <SCORE>
-58.3651

>  <SCORE.INTER>
-17.7867

>  <SCORE.INTER.CONST>
1

>  <SCORE.INTER.POLAR>
-1.70861

>  <SCORE.INTER.REPUL>
0

>  <SCORE.INTER.ROT>
6

>  <SCORE.INTER.VDW>
-23.3775

>  <SCORE.INTER.norm>
-0.63524

>  <SCORE.INTRA>
-38.1784

>  <SCORE.INTRA.DIHEDRAL>
-84.3638

>  <SCORE.INTRA.DIHEDRAL.0>
92.3122

>  <SCORE.INTRA.POLAR>
-0.507394

>  <SCORE.INTRA.POLAR.0>
0

>  <SCORE.INTRA.REPUL>
0

>  <SCORE.INTRA.REPUL.0>
0

>  <SCORE.INTRA.VDW>
5.72862

>  <SCORE.INTRA.VDW.0>
-2.56148

>  <SCORE.INTRA.norm>
-1.36352

>  <SCORE.RESTR>
0

>  <SCORE.RESTR.CAVITY>
0

>  <SCORE.RESTR.norm>
0

>  <SCORE.SYSTEM>
-2.39997

>  <SCORE.SYSTEM.CONST>
0

>  <SCORE.SYSTEM.DIHEDRAL>
6.73221

>  <SCORE.SYSTEM.POLAR>
-4.50543

>  <SCORE.SYSTEM.REPUL>
0.0383557

>  <SCORE.SYSTEM.VDW>
9.36062

>  <SCORE.SYSTEM.norm>
-0.0857131

>  <SCORE.heavy>
28

>  <SCORE.norm>
-2.08447

$$$$
F3406-0445
  rDOCK(R)          3D
libRbt.so/2013.1/901 2013/11/27
 30 33  0  0  0  0  0  0  0  0999 V2000
  -25.7930   20.1234  -15.2807 C   0  0  0  0  0  0
  -25.9875   20.0735  -13.7793 C   0  0  0  0  0  0
  -25.0870   20.9681  -13.1166 O   0  0  0  0  0  0
  -25.3724   22.2939  -13.2283 C   0  0  0  0  0  0
  -26.3139   22.7980  -13.8082 O   0  0  0  0  0  0
  -24.2570   23.0261  -12.6085 C   0  0  0  0  0  0
  -23.0668   22.4376  -12.3498 C   0  0  0  0  0  0
  -22.7558   21.0946  -12.5411 N   0  0  0  0  0  0
  -21.6432   20.3383  -11.9834 C   0  0  0  0  0  0
  -20.6562   19.9840  -13.0790 C   0  0  0  0  0  0
  -20.4830   20.8005  -14.2128 C   0  0  0  0  0  0
  -19.5394   20.4244  -15.1537 C   0  0  0  0  0  0
  -18.7895   19.2805  -15.0148 C   0  0  0  0  0  0
  -17.9078   19.1027  -16.0340 O   0  0  0  0  0  0
  -18.1499   20.2926  -16.8098 C   0  0  0  0  0  0
  -19.2253   21.1063  -16.2902 O   0  0  0  0  0  0
  -18.9474   18.4416  -13.9370 C   0  0  0  0  0  0
  -19.8880   18.8004  -12.9672 C   0  0  0  0  0  0
  -21.9964   23.2992  -11.7505 C   0  0  0  0  0  0
  -22.2776   24.6430  -11.4398 C   0  0  0  0  0  0
  -23.5476   25.1582  -11.6828 N   0  3  0  0  0  0
  -23.7757   26.1172  -11.4536 H   0  0  0  0  0  0
  -24.5510   24.4374  -12.2534 C   0  0  0  0  0  0
  -25.6475   24.9550  -12.4493 O   0  0  0  0  0  0
  -21.3119   25.5040  -10.9129 C   0  0  0  0  0  0
  -20.0232   25.0320  -10.7061 C   0  0  0  0  0  0
  -18.8187   26.0919  -10.0865 Cl  0  0  0  0  0  0
  -19.7034   23.7120  -11.0136 C   0  0  0  0  0  0
  -20.6836   22.8507  -11.5301 C   0  0  0  0  0  0
  -23.4946   20.5308  -12.9564 H   0  0  0  0  0  0
  1  2  1  0  0  0
  2  3  1  0  0  0
  3  4  1  0  0  0
  4  5  2  0  0  0
  4  6  1  0  0  0
  6  7  2  0  0  0
  6 23  1  0  0  0
  7  8  1  0  0  0
  7 19  1  0  0  0
  8  9  1  0  0  0
  8 30  1  0  0  0
  9 10  1  0  0  0
 10 11  2  0  0  0
 10 18  1  0  0  0
 11 12  1  0  0  0
 12 13  2  0  0  0
 12 16  1  0  0  0
 13 14  1  0  0  0
 13 17  1  0  0  0
 14 15  1  0  0  0
 15 16  1  0  0  0
 17 18  2  0  0  0
 19 20  2  0  0  0
 19 29  1  0  0  0
 20 21  1  0  0  0
 20 25  1  0  0  0
 21 22  1  0  0  0
 21 23  1  0  0  0
 23 24  2  0  0  0
 25 26  2  0  0  0
 26 27  1  0  0  0
 26 28  1  0  0  0
 28 29  2  0  0  0
M  END
>  <CHROM.0>
-49.20568857,-73.00633540,-127.87747134,150.64596568,-31.25718766,62.78127683
-157.74467843,-167.60003627

>  <CHROM.1>
73.14334320,1.23401925,16.08237537,-162.91488087,-110.49787352,29.48626031
-21.76799280,22.23305695,-12.97049289,0.97268127,0.02946475,-2.50868656

>  <Name>
F3406-0445

>  <RI>
4.09296e+07

>  <Rbt.Current_Directory>
/home/adria/Escritorio/rDock_CMTR_LC/2pxcA_model/inputs_sah

>  <Rbt.Executable>
rbdock ($Id: //depot/dev/client3/rdock/2013.1/src/exe/rbdock.cxx#4 $)

>  <Rbt.Library>
libRbt.so (2013.1, Build901 2013/11/27)

>  <Rbt.Parameter_File>
/home/adria/Escritorio/rDock_2013.1_src/data/scripts/dock.prm

>  <Rbt.Receptor>
sah_rdock.prm

>  <SCORE>
-54.8024

>  <SCORE.INTER>
-13.5392

>  <SCORE.INTER.CONST>
1

>  <SCORE.INTER.POLAR>
-1.5713

>  <SCORE.INTER.REPUL>
0

>  <SCORE.INTER.ROT>
6

>  <SCORE.INTER.VDW>
-19.5968

>  <SCORE.INTER.norm>
-0.483543

>  <SCORE.INTRA>
-37.7009

>  <SCORE.INTRA.DIHEDRAL>
-83.9799

>  <SCORE.INTRA.DIHEDRAL.0>
92.3122

>  <SCORE.INTRA.POLAR>
-0.523273

>  <SCORE.INTRA.POLAR.0>
0

>  <SCORE.INTRA.REPUL>
0

>  <SCORE.INTRA.REPUL.0>
0

>  <SCORE.INTRA.VDW>
6.06817

>  <SCORE.INTRA.VDW.0>
-2.56148

>  <SCORE.INTRA.norm>
-1.34646

>  <SCORE.RESTR>
0

>  <SCORE.RESTR.CAVITY>
0

>  <SCORE.RESTR.norm>
0

>  <SCORE.SYSTEM>
-3.5623

>  <SCORE.SYSTEM.CONST>
0

>  <SCORE.SYSTEM.DIHEDRAL>
12.9837

>  <SCORE.SYSTEM.POLAR>
-4.54955

>  <SCORE.SYSTEM.REPUL>
0.0385468

>  <SCORE.SYSTEM.VDW>
5.22161

>  <SCORE.SYSTEM.norm>
-0.127225

>  <SCORE.heavy>
28

>  <SCORE.norm>
-1.95723

$$$$
