F1438-0010
  rDOCK(R)          3D
libRbt.so/2013.1/901 2013/11/27
 24 25  0  0  0  0  0  0  0  0999 V2000
  -16.4253   11.8989  -20.0002 C   0  0  0  0  0  0
  -15.6178   13.1792  -19.9933 C   0  0  0  0  0  0
  -16.0694   14.0497  -18.9564 O   0  0  0  0  0  0
  -15.4571   15.2512  -18.9774 C   0  0  0  0  0  0
  -14.6444   15.6219  -19.8254 O   0  0  0  0  0  0
  -15.9879   16.1987  -17.9473 C   0  0  0  0  0  0
  -14.5141   17.4943  -17.7620 C   0  0  0  0  0  0
  -15.1641   19.5718  -17.4139 C   0  0  0  0  0  0
  -16.9310   19.9223  -17.1701 N   0  0  0  0  0  0
  -17.1401   20.2648  -15.7198 C   0  0  0  0  0  0
  -18.5017   20.7537  -15.1261 C   0  0  0  0  0  0
  -18.9307   21.9735  -15.7326 O   0  0  0  0  0  0
  -19.5907   19.7048  -15.2179 C   0  0  0  0  0  0
  -20.8090   20.1040  -14.6428 O   0  0  0  0  0  0
  -21.8351   19.2147  -14.7478 C   0  0  0  0  0  0
  -22.2920   17.9223  -16.2252 C   0  0  0  0  0  0
  -23.8621   17.1312  -16.3831 C   0  0  0  0  0  0
  -24.2641   16.6830  -17.8316 C   0  0  0  0  0  0
  -25.0756   17.5619  -15.2274 C   0  0  0  0  0  0
  -24.7611   18.7547  -13.9535 C   0  0  0  0  0  0
  -23.2334   19.6350  -13.6977 C   0  0  0  0  0  0
  -18.0268   18.7912  -17.7666 C   0  0  0  0  0  0
  -17.7503   16.9218  -17.9576 C   0  0  0  0  0  0
  -18.2972   22.6662  -15.4907 H   0  0  0  0  0  0
  1  2  1  0  0  0
  2  3  1  0  0  0
  3  4  1  0  0  0
  4  5  2  0  0  0
  4  6  1  0  0  0
  6  7  1  0  0  0
  6 23  1  0  0  0
  7  8  1  0  0  0
  8  9  1  0  0  0
  9 10  1  0  0  0
  9 22  1  0  0  0
 10 11  1  0  0  0
 11 12  1  0  0  0
 11 13  1  0  0  0
 12 24  1  0  0  0
 13 14  1  0  0  0
 14 15  1  0  0  0
 15 16  2  0  0  0
 15 21  1  0  0  0
 16 17  1  0  0  0
 17 18  1  0  0  0
 17 19  2  0  0  0
 19 20  1  0  0  0
 20 21  2  0  0  0
 22 23  1  0  0  0
M  END
>  <CHROM.0>
-62.74707840,67.93810410,-42.81285994,63.05714916,-31.23174766,68.73781594
-156.14613030,-162.50976212

>  <CHROM.1>
-174.80874367,3.74285414,159.07467256,174.32742064,-60.66560072,-65.71019224
177.64520418,177.49062556,-34.28910748,-18.89146790,17.76045634,-16.93188430
0.61686311,-0.23965437,-2.67132777

>  <Name>
F1438-0010

>  <RI>
2.20839e+07

>  <Rbt.Current_Directory>
/home/adria/Escritorio/rDock_CMTR_LC/2pxcA_model/inputs_sah

>  <Rbt.Executable>
rbdock ($Id: //depot/dev/client3/rdock/2013.1/src/exe/rbdock.cxx#4 $)

>  <Rbt.Library>
libRbt.so (2013.1, Build901 2013/11/27)

>  <Rbt.Parameter_File>
/home/adria/Escritorio/rDock_2013.1_src/data/scripts/dock.prm

>  <Rbt.Receptor>
sah_rdock.prm

>  <SCORE>
-288.87

>  <SCORE.INTER>
-7.21079

>  <SCORE.INTER.CONST>
1

>  <SCORE.INTER.POLAR>
-1.18896

>  <SCORE.INTER.REPUL>
0

>  <SCORE.INTER.ROT>
8

>  <SCORE.INTER.VDW>
-16.5683

>  <SCORE.INTER.norm>
-0.313512

>  <SCORE.INTRA>
-274.539

>  <SCORE.INTRA.DIHEDRAL>
-20.0242

>  <SCORE.INTRA.DIHEDRAL.0>
22.9828

>  <SCORE.INTRA.POLAR>
0

>  <SCORE.INTRA.POLAR.0>
0

>  <SCORE.INTRA.REPUL>
0

>  <SCORE.INTRA.REPUL.0>
0

>  <SCORE.INTRA.VDW>
-264.527

>  <SCORE.INTRA.VDW.0>
264.876

>  <SCORE.INTRA.norm>
-11.9365

>  <SCORE.RESTR>
0.00123359

>  <SCORE.RESTR.CAVITY>
0.00123359

>  <SCORE.RESTR.norm>
5.36344e-05

>  <SCORE.SYSTEM>
-7.12203

>  <SCORE.SYSTEM.CONST>
0

>  <SCORE.SYSTEM.DIHEDRAL>
6.28851

>  <SCORE.SYSTEM.POLAR>
-3.76178

>  <SCORE.SYSTEM.VDW>
2.52377

>  <SCORE.SYSTEM.norm>
-0.309653

>  <SCORE.heavy>
23

>  <SCORE.norm>
-12.5596

$$$$
F1438-0010
  rDOCK(R)          3D
libRbt.so/2013.1/901 2013/11/27
 24 25  0  0  0  0  0  0  0  0999 V2000
  -16.6135   12.9297  -18.3025 C   0  0  0  0  0  0
  -16.4531   13.0591  -16.8030 C   0  0  0  0  0  0
  -16.5660   14.4247  -16.4039 O   0  0  0  0  0  0
  -17.8400   14.8673  -16.4054 C   0  0  0  0  0  0
  -18.8074   14.2519  -16.8554 O   0  0  0  0  0  0
  -18.0206   16.1391  -15.6371 C   0  0  0  0  0  0
  -16.7838   17.3694  -16.5546 C   0  0  0  0  0  0
  -17.4995   19.4500  -16.6894 C   0  0  0  0  0  0
  -19.0402   19.9174  -15.8456 N   0  0  0  0  0  0
  -18.6791   20.7684  -14.6583 C   0  0  0  0  0  0
  -19.7245   21.5349  -13.7837 C   0  0  0  0  0  0
  -20.6453   22.2702  -14.5907 O   0  0  0  0  0  0
  -20.4676   20.6249  -12.8275 C   0  0  0  0  0  0
  -21.7098   21.1344  -12.4136 O   0  0  0  0  0  0
  -21.6779   22.3455  -11.7915 C   0  0  0  0  0  0
  -20.1535   23.6394  -11.5384 C   0  0  0  0  0  0
  -20.1799   24.9682  -10.3769 C   0  0  0  0  0  0
  -18.7818   25.4652   -9.8680 C   0  0  0  0  0  0
  -21.5799   25.0990   -9.3685 C   0  0  0  0  0  0
  -22.9185   23.9420   -9.4859 C   0  0  0  0  0  0
  -23.0066   22.5523  -10.5972 C   0  0  0  0  0  0
  -20.1259   18.6801  -15.4904 C   0  0  0  0  0  0
  -19.7102   16.8613  -15.1344 C   0  0  0  0  0  0
  -21.1544   22.8532  -14.0070 H   0  0  0  0  0  0
  1  2  1  0  0  0
  2  3  1  0  0  0
  3  4  1  0  0  0
  4  5  2  0  0  0
  4  6  1  0  0  0
  6  7  1  0  0  0
  6 23  1  0  0  0
  7  8  1  0  0  0
  8  9  1  0  0  0
  9 10  1  0  0  0
  9 22  1  0  0  0
 10 11  1  0  0  0
 11 12  1  0  0  0
 11 13  1  0  0  0
 12 24  1  0  0  0
 13 14  1  0  0  0
 14 15  1  0  0  0
 15 16  2  0  0  0
 15 21  1  0  0  0
 16 17  1  0  0  0
 17 18  1  0  0  0
 17 19  2  0  0  0
 19 20  1  0  0  0
 20 21  2  0  0  0
 22 23  1  0  0  0
M  END
>  <CHROM.0>
-68.39822612,-74.13056960,-167.26121027,-58.51590454,167.91698428,-64.16611499
81.52771623,-162.57299804

>  <CHROM.1>
75.96887040,-8.86272259,58.30091906,171.27935609,-48.20397710,-169.30229150
-157.14648591,-58.32099491,7.62146047,-19.39223954,19.56487969,-14.06550059
1.18930174,-0.52212915,-2.75178884

>  <Name>
F1438-0010

>  <RI>
2.20839e+07

>  <Rbt.Current_Directory>
/home/adria/Escritorio/rDock_CMTR_LC/2pxcA_model/inputs_sah

>  <Rbt.Executable>
rbdock ($Id: //depot/dev/client3/rdock/2013.1/src/exe/rbdock.cxx#4 $)

>  <Rbt.Library>
libRbt.so (2013.1, Build901 2013/11/27)

>  <Rbt.Parameter_File>
/home/adria/Escritorio/rDock_2013.1_src/data/scripts/dock.prm

>  <Rbt.Receptor>
sah_rdock.prm

>  <SCORE>
-279.542

>  <SCORE.INTER>
-5.82645

>  <SCORE.INTER.CONST>
1

>  <SCORE.INTER.POLAR>
0

>  <SCORE.INTER.REPUL>
0

>  <SCORE.INTER.ROT>
8

>  <SCORE.INTER.VDW>
-19.2264

>  <SCORE.INTER.norm>
-0.253324

>  <SCORE.INTRA>
-271.544

>  <SCORE.INTRA.DIHEDRAL>
-16.4612

>  <SCORE.INTRA.DIHEDRAL.0>
22.9828

>  <SCORE.INTRA.POLAR>
0

>  <SCORE.INTRA.POLAR.0>
0

>  <SCORE.INTRA.REPUL>
0

>  <SCORE.INTRA.REPUL.0>
0

>  <SCORE.INTRA.VDW>
-263.313

>  <SCORE.INTRA.VDW.0>
264.876

>  <SCORE.INTRA.norm>
-11.8062

>  <SCORE.RESTR>
0

>  <SCORE.RESTR.CAVITY>
0

>  <SCORE.RESTR.norm>
0

>  <SCORE.SYSTEM>
-2.17223

>  <SCORE.SYSTEM.CONST>
0

>  <SCORE.SYSTEM.DIHEDRAL>
3.87773

>  <SCORE.SYSTEM.POLAR>
-3.85653

>  <SCORE.SYSTEM.REPUL>
0.0404917

>  <SCORE.SYSTEM.VDW>
8.79864

>  <SCORE.SYSTEM.norm>
-0.0944449

>  <SCORE.heavy>
23

>  <SCORE.norm>
-12.154

$$$$
F1438-0010
  rDOCK(R)          3D
libRbt.so/2013.1/901 2013/11/27
 24 25  0  0  0  0  0  0  0  0999 V2000
  -14.1999   16.6190  -16.8802 C   0  0  0  0  0  0
  -15.4155   17.0487  -17.6733 C   0  0  0  0  0  0
  -16.3244   17.7709  -16.8432 O   0  0  0  0  0  0
  -17.4218   18.1880  -17.5071 C   0  0  0  0  0  0
  -17.7277   17.8606  -18.6544 O   0  0  0  0  0  0
  -18.3625   18.9759  -16.6499 C   0  0  0  0  0  0
  -19.5755   17.5840  -15.9597 C   0  0  0  0  0  0
  -20.2542   17.9111  -13.8879 C   0  0  0  0  0  0
  -19.8044   19.4532  -13.0372 N   0  0  0  0  0  0
  -21.0438   20.2990  -12.9240 C   0  0  0  0  0  0
  -21.2625   21.3832  -11.8185 C   0  0  0  0  0  0
  -20.0210   21.8528  -11.2914 O   0  0  0  0  0  0
  -22.1081   22.5452  -12.2972 C   0  0  0  0  0  0
  -22.3704   23.5007  -11.3011 O   0  0  0  0  0  0
  -23.1211   23.0715  -10.2490 C   0  0  0  0  0  0
  -23.3591   21.2202   -9.4888 C   0  0  0  0  0  0
  -24.6624   20.7755   -8.3844 C   0  0  0  0  0  0
  -25.0745   19.2619   -8.3806 C   0  0  0  0  0  0
  -25.8214   22.0033   -8.0062 C   0  0  0  0  0  0
  -25.7135   23.6280   -8.7084 C   0  0  0  0  0  0
  -24.4649   24.1964   -9.8451 C   0  0  0  0  0  0
  -18.4626   20.2874  -13.6199 C   0  0  0  0  0  0
  -17.8207   20.3144  -15.4073 C   0  0  0  0  0  0
  -19.5312   22.2761  -12.0130 H   0  0  0  0  0  0
  1  2  1  0  0  0
  2  3  1  0  0  0
  3  4  1  0  0  0
  4  5  2  0  0  0
  4  6  1  0  0  0
  6  7  1  0  0  0
  6 23  1  0  0  0
  7  8  1  0  0  0
  8  9  1  0  0  0
  9 10  1  0  0  0
  9 22  1  0  0  0
 10 11  1  0  0  0
 11 12  1  0  0  0
 11 13  1  0  0  0
 12 24  1  0  0  0
 13 14  1  0  0  0
 14 15  1  0  0  0
 15 16  2  0  0  0
 15 21  1  0  0  0
 16 17  1  0  0  0
 17 18  1  0  0  0
 17 19  2  0  0  0
 19 20  1  0  0  0
 20 21  2  0  0  0
 22 23  1  0  0  0
M  END
>  <CHROM.0>
-63.21866968,63.48212073,-163.87468751,63.79936237,-31.68869171,177.24733901
83.89042882,-163.18184709

>  <CHROM.1>
179.42736196,8.84937155,-91.61901007,154.48559757,23.38536776,62.59168016
177.14795489,-64.59332926,26.05327908,-20.51031696,20.20273068,-13.08411193
0.43537617,-0.77424053,-3.07892595

>  <Name>
F1438-0010

>  <RI>
2.20839e+07

>  <Rbt.Current_Directory>
/home/adria/Escritorio/rDock_CMTR_LC/2pxcA_model/inputs_sah

>  <Rbt.Executable>
rbdock ($Id: //depot/dev/client3/rdock/2013.1/src/exe/rbdock.cxx#4 $)

>  <Rbt.Library>
libRbt.so (2013.1, Build901 2013/11/27)

>  <Rbt.Parameter_File>
/home/adria/Escritorio/rDock_2013.1_src/data/scripts/dock.prm

>  <Rbt.Receptor>
sah_rdock.prm

>  <SCORE>
-287.327

>  <SCORE.INTER>
-8.03093

>  <SCORE.INTER.CONST>
1

>  <SCORE.INTER.POLAR>
-0.777289

>  <SCORE.INTER.REPUL>
0

>  <SCORE.INTER.ROT>
8

>  <SCORE.INTER.VDW>
-18.7881

>  <SCORE.INTER.norm>
-0.349171

>  <SCORE.INTRA>
-272.349

>  <SCORE.INTRA.DIHEDRAL>
-14.2078

>  <SCORE.INTRA.DIHEDRAL.0>
22.9828

>  <SCORE.INTRA.POLAR>
0

>  <SCORE.INTRA.POLAR.0>
0

>  <SCORE.INTRA.REPUL>
0

>  <SCORE.INTRA.REPUL.0>
0

>  <SCORE.INTRA.VDW>
-265.245

>  <SCORE.INTRA.VDW.0>
264.876

>  <SCORE.INTRA.norm>
-11.8412

>  <SCORE.RESTR>
0

>  <SCORE.RESTR.CAVITY>
0

>  <SCORE.RESTR.norm>
0

>  <SCORE.SYSTEM>
-6.94733

>  <SCORE.SYSTEM.CONST>
0

>  <SCORE.SYSTEM.DIHEDRAL>
5.72251

>  <SCORE.SYSTEM.POLAR>
-3.64278

>  <SCORE.SYSTEM.VDW>
2.57685

>  <SCORE.SYSTEM.norm>
-0.302058

>  <SCORE.heavy>
23

>  <SCORE.norm>
-12.4925

$$$$
F1438-0010
  rDOCK(R)          3D
libRbt.so/2013.1/901 2013/11/27
 24 25  0  0  0  0  0  0  0  0999 V2000
  -25.4160   21.8888   -9.7768 C   0  0  0  0  0  0
  -24.2836   20.9326   -9.4689 C   0  0  0  0  0  0
  -23.2359   21.0729  -10.4277 O   0  0  0  0  0  0
  -22.1971   20.2453  -10.1935 C   0  0  0  0  0  0
  -22.1716   19.3580   -9.3396 O   0  0  0  0  0  0
  -21.0991   20.3814  -11.2016 C   0  0  0  0  0  0
  -21.5654   18.9992  -12.5272 C   0  0  0  0  0  0
  -21.1162   19.5485  -14.6144 C   0  0  0  0  0  0
  -20.2372   21.1025  -14.9560 N   0  0  0  0  0  0
  -18.8394   20.7581  -15.3937 C   0  0  0  0  0  0
  -18.5076   19.8898  -16.6512 C   0  0  0  0  0  0
  -17.2011   20.1725  -17.1541 O   0  0  0  0  0  0
  -18.6671   18.4052  -16.3962 C   0  0  0  0  0  0
  -18.2973   17.6018  -17.4880 O   0  0  0  0  0  0
  -18.3374   16.2570  -17.2766 C   0  0  0  0  0  0
  -18.5797   15.2141  -15.5692 C   0  0  0  0  0  0
  -18.2139   13.4944  -15.4121 C   0  0  0  0  0  0
  -17.8627   12.9949  -13.9671 C   0  0  0  0  0  0
  -17.5490   12.7053  -16.8010 C   0  0  0  0  0  0
  -17.2350   13.5874  -18.3069 C   0  0  0  0  0  0
  -17.5400   15.3200  -18.5883 C   0  0  0  0  0  0
  -20.3040   22.2978  -13.7718 C   0  0  0  0  0  0
  -20.4778   22.0422  -11.8977 C   0  0  0  0  0  0
  -17.0441   19.5968  -17.9180 H   0  0  0  0  0  0
  1  2  1  0  0  0
  2  3  1  0  0  0
  3  4  1  0  0  0
  4  5  2  0  0  0
  4  6  1  0  0  0
  6  7  1  0  0  0
  6 23  1  0  0  0
  7  8  1  0  0  0
  8  9  1  0  0  0
  9 10  1  0  0  0
  9 22  1  0  0  0
 10 11  1  0  0  0
 11 12  1  0  0  0
 11 13  1  0  0  0
 12 24  1  0  0  0
 13 14  1  0  0  0
 14 15  1  0  0  0
 15 16  2  0  0  0
 15 21  1  0  0  0
 16 17  1  0  0  0
 17 18  1  0  0  0
 17 19  2  0  0  0
 19 20  1  0  0  0
 20 21  2  0  0  0
 22 23  1  0  0  0
M  END
>  <CHROM.0>
-178.50420103,-71.50322044,-6.79070153,65.37428315,168.31274189,65.47155015
84.37068597,-160.94076484

>  <CHROM.1>
179.68573313,7.00191749,-92.97957204,60.13927083,155.43996471,178.92661156
-176.40060640,175.73898240,-10.24752125,-19.99765453,18.54687598,-14.16848435
2.68981110,0.97075164,-0.21406447

>  <Name>
F1438-0010

>  <RI>
2.20839e+07

>  <Rbt.Current_Directory>
/home/adria/Escritorio/rDock_CMTR_LC/2pxcA_model/inputs_sah

>  <Rbt.Executable>
rbdock ($Id: //depot/dev/client3/rdock/2013.1/src/exe/rbdock.cxx#4 $)

>  <Rbt.Library>
libRbt.so (2013.1, Build901 2013/11/27)

>  <Rbt.Parameter_File>
/home/adria/Escritorio/rDock_2013.1_src/data/scripts/dock.prm

>  <Rbt.Receptor>
sah_rdock.prm

>  <SCORE>
-286.304

>  <SCORE.INTER>
-10.3651

>  <SCORE.INTER.CONST>
1

>  <SCORE.INTER.POLAR>
-1.7521

>  <SCORE.INTER.REPUL>
0.0045232

>  <SCORE.INTER.ROT>
8

>  <SCORE.INTER.VDW>
-17.8306

>  <SCORE.INTER.norm>
-0.450658

>  <SCORE.INTRA>
-274.083

>  <SCORE.INTRA.DIHEDRAL>
-17.9482

>  <SCORE.INTRA.DIHEDRAL.0>
22.9828

>  <SCORE.INTRA.POLAR>
-0.033511

>  <SCORE.INTRA.POLAR.0>
0

>  <SCORE.INTRA.REPUL>
0

>  <SCORE.INTRA.REPUL.0>
0

>  <SCORE.INTRA.VDW>
-264.995

>  <SCORE.INTRA.VDW.0>
264.876

>  <SCORE.INTRA.norm>
-11.9166

>  <SCORE.RESTR>
0

>  <SCORE.RESTR.CAVITY>
0

>  <SCORE.RESTR.norm>
0

>  <SCORE.SYSTEM>
-1.8564

>  <SCORE.SYSTEM.CONST>
0

>  <SCORE.SYSTEM.DIHEDRAL>
6.78957

>  <SCORE.SYSTEM.POLAR>
-4.46811

>  <SCORE.SYSTEM.REPUL>
0.0357538

>  <SCORE.SYSTEM.VDW>
9.76162

>  <SCORE.SYSTEM.norm>
-0.080713

>  <SCORE.heavy>
23

>  <SCORE.norm>
-12.448

$$$$
F1438-0010
  rDOCK(R)          3D
libRbt.so/2013.1/901 2013/11/27
 24 25  0  0  0  0  0  0  0  0999 V2000
  -18.5420   13.3848  -20.5149 C   0  0  0  0  0  0
  -17.4028   14.1055  -19.8265 C   0  0  0  0  0  0
  -17.8773   15.2829  -19.1742 O   0  0  0  0  0  0
  -16.8850   16.0164  -18.6300 C   0  0  0  0  0  0
  -15.6828   15.7615  -18.7130 O   0  0  0  0  0  0
  -17.3641   17.3050  -18.0381 C   0  0  0  0  0  0
  -18.6316   16.6936  -16.6579 C   0  0  0  0  0  0
  -18.6471   17.9199  -14.8261 C   0  0  0  0  0  0
  -17.6544   19.4415  -14.7655 N   0  0  0  0  0  0
  -18.5973   20.6129  -14.8195 C   0  0  0  0  0  0
  -19.3950   21.1488  -13.5859 C   0  0  0  0  0  0
  -19.9577   22.4359  -13.8439 O   0  0  0  0  0  0
  -20.4670   20.1860  -13.1186 C   0  0  0  0  0  0
  -21.0150   20.5151  -11.8674 O   0  0  0  0  0  0
  -22.1430   19.8376  -11.5161 C   0  0  0  0  0  0
  -23.3901   20.1059   -9.9558 C   0  0  0  0  0  0
  -24.5711   18.9045   -9.4286 C   0  0  0  0  0  0
  -24.9970   18.9741   -7.9205 C   0  0  0  0  0  0
  -24.5874   17.3973  -10.2782 C   0  0  0  0  0  0
  -23.4590   17.0693  -11.6063 C   0  0  0  0  0  0
  -22.2123   18.1841  -12.2201 C   0  0  0  0  0  0
  -16.3628   19.5580  -15.8397 C   0  0  0  0  0  0
  -16.2272   18.7556  -17.5560 C   0  0  0  0  0  0
  -20.3313   22.7702  -13.0142 H   0  0  0  0  0  0
  1  2  1  0  0  0
  2  3  1  0  0  0
  3  4  1  0  0  0
  4  5  2  0  0  0
  4  6  1  0  0  0
  6  7  1  0  0  0
  6 23  1  0  0  0
  7  8  1  0  0  0
  8  9  1  0  0  0
  9 10  1  0  0  0
  9 22  1  0  0  0
 10 11  1  0  0  0
 11 12  1  0  0  0
 11 13  1  0  0  0
 12 24  1  0  0  0
 13 14  1  0  0  0
 14 15  1  0  0  0
 15 16  2  0  0  0
 15 21  1  0  0  0
 16 17  1  0  0  0
 17 18  1  0  0  0
 17 19  2  0  0  0
 19 20  1  0  0  0
 20 21  2  0  0  0
 22 23  1  0  0  0
M  END
>  <CHROM.0>
-60.30229914,-167.98125580,-5.95388111,66.33331262,-30.68658795,-50.81615486
-36.90396821,-157.98592846

>  <CHROM.1>
-175.29142993,2.89668457,60.38133780,79.97126331,166.34664383,-172.27018066
168.11185489,168.21093043,-171.97743328,-19.75196110,18.24509866,-14.64051356
0.75249162,-0.69791209,-2.56817239

>  <Name>
F1438-0010

>  <RI>
2.20839e+07

>  <Rbt.Current_Directory>
/home/adria/Escritorio/rDock_CMTR_LC/2pxcA_model/inputs_sah

>  <Rbt.Executable>
rbdock ($Id: //depot/dev/client3/rdock/2013.1/src/exe/rbdock.cxx#4 $)

>  <Rbt.Library>
libRbt.so (2013.1, Build901 2013/11/27)

>  <Rbt.Parameter_File>
/home/adria/Escritorio/rDock_2013.1_src/data/scripts/dock.prm

>  <Rbt.Receptor>
sah_rdock.prm

>  <SCORE>
-283.89

>  <SCORE.INTER>
-5.63207

>  <SCORE.INTER.CONST>
1

>  <SCORE.INTER.POLAR>
0

>  <SCORE.INTER.REPUL>
0.0163793

>  <SCORE.INTER.ROT>
8

>  <SCORE.INTER.VDW>
-19.114

>  <SCORE.INTER.norm>
-0.244873

>  <SCORE.INTRA>
-272.385

>  <SCORE.INTRA.DIHEDRAL>
-18.208

>  <SCORE.INTRA.DIHEDRAL.0>
22.9828

>  <SCORE.INTRA.POLAR>
0

>  <SCORE.INTRA.POLAR.0>
0

>  <SCORE.INTRA.REPUL>
0

>  <SCORE.INTRA.REPUL.0>
0

>  <SCORE.INTRA.VDW>
-263.281

>  <SCORE.INTRA.VDW.0>
264.876

>  <SCORE.INTRA.norm>
-11.8428

>  <SCORE.RESTR>
0.00301993

>  <SCORE.RESTR.CAVITY>
0.00301993

>  <SCORE.RESTR.norm>
0.000131301

>  <SCORE.SYSTEM>
-5.87651

>  <SCORE.SYSTEM.CONST>
0

>  <SCORE.SYSTEM.DIHEDRAL>
9.91262

>  <SCORE.SYSTEM.POLAR>
-4.29448

>  <SCORE.SYSTEM.VDW>
3.76842

>  <SCORE.SYSTEM.norm>
-0.255501

>  <SCORE.heavy>
23

>  <SCORE.norm>
-12.343

$$$$
F1438-0010
  rDOCK(R)          3D
libRbt.so/2013.1/901 2013/11/27
 24 25  0  0  0  0  0  0  0  0999 V2000
  -14.1003   17.7628  -17.3527 C   0  0  0  0  0  0
  -14.7600   16.9440  -18.4415 C   0  0  0  0  0  0
  -16.1489   17.2596  -18.5324 O   0  0  0  0  0  0
  -16.8882   16.6482  -17.5844 C   0  0  0  0  0  0
  -16.4823   15.7727  -16.8190 O   0  0  0  0  0  0
  -18.2448   17.2574  -17.4141 C   0  0  0  0  0  0
  -19.0261   16.1597  -15.9754 C   0  0  0  0  0  0
  -20.3213   17.2718  -14.5805 C   0  0  0  0  0  0
  -20.7012   19.0169  -14.9184 N   0  0  0  0  0  0
  -22.1394   19.1029  -15.3528 C   0  0  0  0  0  0
  -23.3462   19.1939  -14.3626 C   0  0  0  0  0  0
  -23.6496   17.9225  -13.7871 O   0  0  0  0  0  0
  -23.1364   20.2299  -13.2776 C   0  0  0  0  0  0
  -24.2364   20.3756  -12.4157 O   0  0  0  0  0  0
  -24.1368   21.3673  -11.4876 C   0  0  0  0  0  0
  -24.9452   21.5143   -9.6473 C   0  0  0  0  0  0
  -25.0432   23.0245   -8.7388 C   0  0  0  0  0  0
  -26.1900   23.1126   -7.6721 C   0  0  0  0  0  0
  -24.4645   24.4517   -9.5276 C   0  0  0  0  0  0
  -23.8180   24.4015  -11.1780 C   0  0  0  0  0  0
  -23.6824   22.9524  -12.2056 C   0  0  0  0  0  0
  -19.6371   19.8536  -15.9201 C   0  0  0  0  0  0
  -18.5788   19.1306  -17.3219 C   0  0  0  0  0  0
  -24.4375   18.0264  -13.2319 H   0  0  0  0  0  0
  1  2  1  0  0  0
  2  3  1  0  0  0
  3  4  1  0  0  0
  4  5  2  0  0  0
  4  6  1  0  0  0
  6  7  1  0  0  0
  6 23  1  0  0  0
  7  8  1  0  0  0
  8  9  1  0  0  0
  9 10  1  0  0  0
  9 22  1  0  0  0
 10 11  1  0  0  0
 11 12  1  0  0  0
 11 13  1  0  0  0
 12 24  1  0  0  0
 13 14  1  0  0  0
 14 15  1  0  0  0
 15 16  2  0  0  0
 15 21  1  0  0  0
 16 17  1  0  0  0
 17 18  1  0  0  0
 17 19  2  0  0  0
 19 20  1  0  0  0
 20 21  2  0  0  0
 22 23  1  0  0  0
M  END
>  <CHROM.0>
-62.06328109,-167.77510403,-11.08232127,65.44603912,-31.00798313,-56.60646428
83.60168559,-163.23390940

>  <CHROM.1>
-79.47803240,-9.18148525,-179.43821552,84.72621055,-77.34365757,-176.25834225
177.00596429,-175.10405045,-150.85663464,-20.95515795,19.50153630,-14.18855327
-0.73819328,0.43537400,0.49513699

>  <Name>
F1438-0010

>  <RI>
2.20839e+07

>  <Rbt.Current_Directory>
/home/adria/Escritorio/rDock_CMTR_LC/2pxcA_model/inputs_sah

>  <Rbt.Executable>
rbdock ($Id: //depot/dev/client3/rdock/2013.1/src/exe/rbdock.cxx#4 $)

>  <Rbt.Library>
libRbt.so (2013.1, Build901 2013/11/27)

>  <Rbt.Parameter_File>
/home/adria/Escritorio/rDock_2013.1_src/data/scripts/dock.prm

>  <Rbt.Receptor>
sah_rdock.prm

>  <SCORE>
-277.883

>  <SCORE.INTER>
-1.39105

>  <SCORE.INTER.CONST>
1

>  <SCORE.INTER.POLAR>
0

>  <SCORE.INTER.REPUL>
0.00339864

>  <SCORE.INTER.ROT>
8

>  <SCORE.INTER.VDW>
-14.808

>  <SCORE.INTER.norm>
-0.0604804

>  <SCORE.INTRA>
-270.4

>  <SCORE.INTRA.DIHEDRAL>
-14.6612

>  <SCORE.INTRA.DIHEDRAL.0>
22.9828

>  <SCORE.INTRA.POLAR>
-0.000813724

>  <SCORE.INTRA.POLAR.0>
0

>  <SCORE.INTRA.REPUL>
0

>  <SCORE.INTRA.REPUL.0>
0

>  <SCORE.INTRA.VDW>
-263.067

>  <SCORE.INTRA.VDW.0>
264.876

>  <SCORE.INTRA.norm>
-11.7565

>  <SCORE.RESTR>
0

>  <SCORE.RESTR.CAVITY>
0

>  <SCORE.RESTR.norm>
0

>  <SCORE.SYSTEM>
-6.09135

>  <SCORE.SYSTEM.CONST>
0

>  <SCORE.SYSTEM.DIHEDRAL>
9.23061

>  <SCORE.SYSTEM.POLAR>
-4.24975

>  <SCORE.SYSTEM.VDW>
3.74249

>  <SCORE.SYSTEM.norm>
-0.264841

>  <SCORE.heavy>
23

>  <SCORE.norm>
-12.0819

$$$$
F1438-0010
  rDOCK(R)          3D
libRbt.so/2013.1/901 2013/11/27
 24 25  0  0  0  0  0  0  0  0999 V2000
  -24.9866   22.7158   -7.9859 C   0  0  0  0  0  0
  -25.1177   21.2618   -8.3857 C   0  0  0  0  0  0
  -24.2469   20.9625   -9.4761 O   0  0  0  0  0  0
  -24.3538   19.6855   -9.8966 C   0  0  0  0  0  0
  -25.1603   18.8593   -9.4676 O   0  0  0  0  0  0
  -23.4982   19.3860  -11.0877 C   0  0  0  0  0  0
  -23.5723   17.4185  -11.1804 C   0  0  0  0  0  0
  -23.5856   16.6016  -13.2279 C   0  0  0  0  0  0
  -23.3752   17.7299  -14.6374 N   0  0  0  0  0  0
  -22.0049   17.4999  -15.2151 C   0  0  0  0  0  0
  -20.6747   17.8657  -14.4787 C   0  0  0  0  0  0
  -20.5011   17.0893  -13.2926 O   0  0  0  0  0  0
  -19.4582   17.7454  -15.3732 C   0  0  0  0  0  0
  -18.2542   18.0950  -14.7389 O   0  0  0  0  0  0
  -17.1388   18.0580  -15.5196 C   0  0  0  0  0  0
  -15.6540   19.4040  -15.7332 C   0  0  0  0  0  0
  -14.4984   19.3833  -17.0673 C   0  0  0  0  0  0
  -13.8455   20.7619  -17.4335 C   0  0  0  0  0  0
  -14.7214   18.1670  -18.2775 C   0  0  0  0  0  0
  -16.0584   17.0055  -18.1895 C   0  0  0  0  0  0
  -17.2983   16.9314  -16.9123 C   0  0  0  0  0  0
  -23.7417   19.3534  -14.3817 C   0  0  0  0  0  0
  -23.6038   20.3132  -12.7485 C   0  0  0  0  0  0
  -20.5033   16.1534  -13.5453 H   0  0  0  0  0  0
  1  2  1  0  0  0
  2  3  1  0  0  0
  3  4  1  0  0  0
  4  5  2  0  0  0
  4  6  1  0  0  0
  6  7  1  0  0  0
  6 23  1  0  0  0
  7  8  1  0  0  0
  8  9  1  0  0  0
  9 10  1  0  0  0
  9 22  1  0  0  0
 10 11  1  0  0  0
 11 12  1  0  0  0
 11 13  1  0  0  0
 12 24  1  0  0  0
 13 14  1  0  0  0
 14 15  1  0  0  0
 15 16  2  0  0  0
 15 21  1  0  0  0
 16 17  1  0  0  0
 17 18  1  0  0  0
 17 19  2  0  0  0
 19 20  1  0  0  0
 20 21  2  0  0  0
 22 23  1  0  0  0
M  END
>  <CHROM.0>
-65.76954895,-74.65616294,-166.61037137,-59.89960588,168.62415290,175.29068464
83.18419338,-165.65459945

>  <CHROM.1>
-178.21467104,4.24545315,167.87653120,-68.17043392,64.68038769,58.40672111
178.81717482,-177.28789705,132.92507792,-20.78078007,18.81248145,-13.58025250
-2.60487684,-0.45351701,-2.43016012

>  <Name>
F1438-0010

>  <RI>
2.20839e+07

>  <Rbt.Current_Directory>
/home/adria/Escritorio/rDock_CMTR_LC/2pxcA_model/inputs_sah

>  <Rbt.Executable>
rbdock ($Id: //depot/dev/client3/rdock/2013.1/src/exe/rbdock.cxx#4 $)

>  <Rbt.Library>
libRbt.so (2013.1, Build901 2013/11/27)

>  <Rbt.Parameter_File>
/home/adria/Escritorio/rDock_2013.1_src/data/scripts/dock.prm

>  <Rbt.Receptor>
sah_rdock.prm

>  <SCORE>
-281.003

>  <SCORE.INTER>
-6.23824

>  <SCORE.INTER.CONST>
1

>  <SCORE.INTER.POLAR>
-0.824621

>  <SCORE.INTER.REPUL>
0.0126029

>  <SCORE.INTER.ROT>
8

>  <SCORE.INTER.VDW>
-16.8975

>  <SCORE.INTER.norm>
-0.271228

>  <SCORE.INTRA>
-272.518

>  <SCORE.INTRA.DIHEDRAL>
-19.8785

>  <SCORE.INTRA.DIHEDRAL.0>
22.9828

>  <SCORE.INTRA.POLAR>
0

>  <SCORE.INTRA.POLAR.0>
0

>  <SCORE.INTRA.REPUL>
0

>  <SCORE.INTRA.REPUL.0>
0

>  <SCORE.INTRA.VDW>
-262.579

>  <SCORE.INTRA.VDW.0>
264.876

>  <SCORE.INTRA.norm>
-11.8486

>  <SCORE.RESTR>
0

>  <SCORE.RESTR.CAVITY>
0

>  <SCORE.RESTR.norm>
0

>  <SCORE.SYSTEM>
-2.24683

>  <SCORE.SYSTEM.CONST>
0

>  <SCORE.SYSTEM.DIHEDRAL>
3.73668

>  <SCORE.SYSTEM.POLAR>
-3.88978

>  <SCORE.SYSTEM.REPUL>
0.041358

>  <SCORE.SYSTEM.VDW>
8.9033

>  <SCORE.SYSTEM.norm>
-0.0976885

>  <SCORE.heavy>
23

>  <SCORE.norm>
-12.2175

$$$$
F1438-0010
  rDOCK(R)          3D
libRbt.so/2013.1/901 2013/11/27
 24 25  0  0  0  0  0  0  0  0999 V2000
  -14.1853   17.8682  -17.2836 C   0  0  0  0  0  0
  -15.2763   18.9127  -17.3830 C   0  0  0  0  0  0
  -16.2107   18.7631  -16.3147 O   0  0  0  0  0  0
  -17.2561   19.6098  -16.4106 C   0  0  0  0  0  0
  -17.4712   20.3722  -17.3538 O   0  0  0  0  0  0
  -18.2643   19.4238  -15.3200 C   0  0  0  0  0  0
  -19.8890   20.2191  -16.1029 C   0  0  0  0  0  0
  -21.7613   19.1903  -15.5592 C   0  0  0  0  0  0
  -21.7124   17.8334  -14.3507 N   0  0  0  0  0  0
  -22.3351   18.3274  -13.0730 C   0  0  0  0  0  0
  -21.9351   19.6642  -12.3671 C   0  0  0  0  0  0
  -20.5209   19.7631  -12.1936 O   0  0  0  0  0  0
  -22.4674   20.8874  -13.0848 C   0  0  0  0  0  0
  -21.7326   22.0571  -12.8280 O   0  0  0  0  0  0
  -21.8349   22.5579  -11.5656 C   0  0  0  0  0  0
  -23.2407   22.2531  -10.1540 C   0  0  0  0  0  0
  -23.4354   23.2767   -8.7292 C   0  0  0  0  0  0
  -24.8696   23.3068   -8.0944 C   0  0  0  0  0  0
  -22.3884   24.6483   -8.6015 C   0  0  0  0  0  0
  -21.1867   25.0171   -9.8522 C   0  0  0  0  0  0
  -20.9034   24.0797  -11.3406 C   0  0  0  0  0  0
  -20.2354   17.0550  -14.1308 C   0  0  0  0  0  0
  -18.5041   17.8072  -14.3411 C   0  0  0  0  0  0
  -20.2660   19.1661  -11.4736 H   0  0  0  0  0  0
  1  2  1  0  0  0
  2  3  1  0  0  0
  3  4  1  0  0  0
  4  5  2  0  0  0
  4  6  1  0  0  0
  6  7  1  0  0  0
  6 23  1  0  0  0
  7  8  1  0  0  0
  8  9  1  0  0  0
  9 10  1  0  0  0
  9 22  1  0  0  0
 10 11  1  0  0  0
 11 12  1  0  0  0
 11 13  1  0  0  0
 12 24  1  0  0  0
 13 14  1  0  0  0
 14 15  1  0  0  0
 15 16  2  0  0  0
 15 21  1  0  0  0
 16 17  1  0  0  0
 17 18  1  0  0  0
 17 19  2  0  0  0
 19 20  1  0  0  0
 20 21  2  0  0  0
 22 23  1  0  0  0
M  END
>  <CHROM.0>
-56.21415979,67.77805194,-130.65702659,66.64755966,-28.92005580,-177.99604035
-155.99406922,-160.39041346

>  <CHROM.1>
-175.55779238,5.32157636,-158.52905822,-50.39712956,-50.69638435,-74.46091523
-156.18852172,-69.30929897,-20.22724609,-20.26452802,20.48829404,-13.40558831
-0.81183454,0.51547159,0.54734365

>  <Name>
F1438-0010

>  <RI>
2.20839e+07

>  <Rbt.Current_Directory>
/home/adria/Escritorio/rDock_CMTR_LC/2pxcA_model/inputs_sah

>  <Rbt.Executable>
rbdock ($Id: //depot/dev/client3/rdock/2013.1/src/exe/rbdock.cxx#4 $)

>  <Rbt.Library>
libRbt.so (2013.1, Build901 2013/11/27)

>  <Rbt.Parameter_File>
/home/adria/Escritorio/rDock_2013.1_src/data/scripts/dock.prm

>  <Rbt.Receptor>
sah_rdock.prm

>  <SCORE>
-286.481

>  <SCORE.INTER>
-6.61457

>  <SCORE.INTER.CONST>
1

>  <SCORE.INTER.POLAR>
-1.35513

>  <SCORE.INTER.REPUL>
0.0321691

>  <SCORE.INTER.ROT>
8

>  <SCORE.INTER.VDW>
-15.568

>  <SCORE.INTER.norm>
-0.28759

>  <SCORE.INTRA>
-273.114

>  <SCORE.INTRA.DIHEDRAL>
-16.7853

>  <SCORE.INTRA.DIHEDRAL.0>
22.9828

>  <SCORE.INTRA.POLAR>
0

>  <SCORE.INTRA.POLAR.0>
0

>  <SCORE.INTRA.REPUL>
0

>  <SCORE.INTRA.REPUL.0>
0

>  <SCORE.INTRA.VDW>
-264.721

>  <SCORE.INTRA.VDW.0>
264.876

>  <SCORE.INTRA.norm>
-11.8745

>  <SCORE.RESTR>
0

>  <SCORE.RESTR.CAVITY>
0

>  <SCORE.RESTR.norm>
0

>  <SCORE.SYSTEM>
-6.75284

>  <SCORE.SYSTEM.CONST>
0

>  <SCORE.SYSTEM.DIHEDRAL>
9.5063

>  <SCORE.SYSTEM.POLAR>
-4.29616

>  <SCORE.SYSTEM.VDW>
3.10097

>  <SCORE.SYSTEM.norm>
-0.293602

>  <SCORE.heavy>
23

>  <SCORE.norm>
-12.4557

$$$$
F1438-0010
  rDOCK(R)          3D
libRbt.so/2013.1/901 2013/11/27
 24 25  0  0  0  0  0  0  0  0999 V2000
  -14.9067   16.1923  -18.3780 C   0  0  0  0  0  0
  -16.3311   15.7900  -18.0611 C   0  0  0  0  0  0
  -17.0412   16.8822  -17.4781 O   0  0  0  0  0  0
  -18.3394   16.5991  -17.2466 C   0  0  0  0  0  0
  -18.8432   15.4762  -17.2944 O   0  0  0  0  0  0
  -19.1159   17.7752  -16.7425 C   0  0  0  0  0  0
  -19.0733   17.5075  -14.7901 C   0  0  0  0  0  0
  -18.9337   19.3687  -13.6170 C   0  0  0  0  0  0
  -19.0243   20.9694  -14.4737 N   0  0  0  0  0  0
  -20.3554   21.5930  -14.1520 C   0  0  0  0  0  0
  -20.6595   22.3662  -12.8272 C   0  0  0  0  0  0
  -22.0014   22.8545  -12.8010 O   0  0  0  0  0  0
  -20.3714   21.5424  -11.5891 C   0  0  0  0  0  0
  -21.1387   20.3687  -11.5007 O   0  0  0  0  0  0
  -22.4039   20.5207  -11.0201 C   0  0  0  0  0  0
  -23.2545   22.0766  -10.0622 C   0  0  0  0  0  0
  -24.7690   21.9629   -9.1627 C   0  0  0  0  0  0
  -24.9679   23.0133   -8.0147 C   0  0  0  0  0  0
  -25.5040   20.3999   -9.0613 C   0  0  0  0  0  0
  -24.7616   18.9756   -9.8128 C   0  0  0  0  0  0
  -23.2330   18.9518  -10.7276 C   0  0  0  0  0  0
  -18.6452   20.9838  -16.1144 C   0  0  0  0  0  0
  -18.8776   19.5636  -17.3540 C   0  0  0  0  0  0
  -22.5966   22.0984  -12.9181 H   0  0  0  0  0  0
  1  2  1  0  0  0
  2  3  1  0  0  0
  3  4  1  0  0  0
  4  5  2  0  0  0
  4  6  1  0  0  0
  6  7  1  0  0  0
  6 23  1  0  0  0
  7  8  1  0  0  0
  8  9  1  0  0  0
  9 10  1  0  0  0
  9 22  1  0  0  0
 10 11  1  0  0  0
 11 12  1  0  0  0
 11 13  1  0  0  0
 12 24  1  0  0  0
 13 14  1  0  0  0
 14 15  1  0  0  0
 15 16  2  0  0  0
 15 21  1  0  0  0
 16 17  1  0  0  0
 17 18  1  0  0  0
 17 19  2  0  0  0
 19 20  1  0  0  0
 20 21  2  0  0  0
 22 23  1  0  0  0
M  END
>  <CHROM.0>
-178.84029481,-168.04837635,-167.14226672,-62.11719882,29.38652372,59.62411225
-156.65590254,-163.77279421

>  <CHROM.1>
176.44313955,12.21570557,-95.95088546,80.79856762,179.63839945,57.01811832
-61.04663453,-81.32524709,-14.04962427,-20.46319323,19.62020335,-13.66125623
-0.56024222,0.79381528,0.18435395

>  <Name>
F1438-0010

>  <RI>
2.20839e+07

>  <Rbt.Current_Directory>
/home/adria/Escritorio/rDock_CMTR_LC/2pxcA_model/inputs_sah

>  <Rbt.Executable>
rbdock ($Id: //depot/dev/client3/rdock/2013.1/src/exe/rbdock.cxx#4 $)

>  <Rbt.Library>
libRbt.so (2013.1, Build901 2013/11/27)

>  <Rbt.Parameter_File>
/home/adria/Escritorio/rDock_2013.1_src/data/scripts/dock.prm

>  <Rbt.Receptor>
sah_rdock.prm

>  <SCORE>
-272.7

>  <SCORE.INTER>
-5.05822

>  <SCORE.INTER.CONST>
1

>  <SCORE.INTER.POLAR>
0

>  <SCORE.INTER.REPUL>
0

>  <SCORE.INTER.ROT>
8

>  <SCORE.INTER.VDW>
-18.4582

>  <SCORE.INTER.norm>
-0.219923

>  <SCORE.INTRA>
-273.647

>  <SCORE.INTRA.DIHEDRAL>
-16.2572

>  <SCORE.INTRA.DIHEDRAL.0>
22.9828

>  <SCORE.INTRA.POLAR>
0

>  <SCORE.INTRA.POLAR.0>
0

>  <SCORE.INTRA.REPUL>
0

>  <SCORE.INTRA.REPUL.0>
0

>  <SCORE.INTRA.VDW>
-265.518

>  <SCORE.INTRA.VDW.0>
264.876

>  <SCORE.INTRA.norm>
-11.8977

>  <SCORE.RESTR>
0

>  <SCORE.RESTR.CAVITY>
0

>  <SCORE.RESTR.norm>
0

>  <SCORE.SYSTEM>
6.00501

>  <SCORE.SYSTEM.CONST>
0

>  <SCORE.SYSTEM.DIHEDRAL>
6.37977

>  <SCORE.SYSTEM.POLAR>
-3.42698

>  <SCORE.SYSTEM.VDW>
14.4668

>  <SCORE.SYSTEM.norm>
0.261087

>  <SCORE.heavy>
23

>  <SCORE.norm>
-11.8565

$$$$
F1438-0010
  rDOCK(R)          3D
libRbt.so/2013.1/901 2013/11/27
 24 25  0  0  0  0  0  0  0  0999 V2000
  -14.1357   13.7890  -19.1307 C   0  0  0  0  0  0
  -15.5319   14.3536  -19.2831 C   0  0  0  0  0  0
  -15.8665   15.1696  -18.1610 O   0  0  0  0  0  0
  -17.0886   15.7302  -18.2669 C   0  0  0  0  0  0
  -17.8865   15.5315  -19.1839 O   0  0  0  0  0  0
  -17.4835   16.5113  -17.0527 C   0  0  0  0  0  0
  -16.1207   17.9345  -17.0009 C   0  0  0  0  0  0
  -16.8665   19.8865  -16.2986 C   0  0  0  0  0  0
  -18.5729   20.0191  -15.6862 N   0  0  0  0  0  0
  -18.5173   20.1958  -14.1929 C   0  0  0  0  0  0
  -19.6336   20.9014  -13.3554 C   0  0  0  0  0  0
  -19.2441   21.0604  -11.9906 O   0  0  0  0  0  0
  -20.0547   22.2319  -13.9445 C   0  0  0  0  0  0
  -20.8880   22.9848  -13.1002 O   0  0  0  0  0  0
  -22.1478   22.4992  -12.9218 C   0  0  0  0  0  0
  -22.8224   20.6001  -12.9159 C   0  0  0  0  0  0
  -24.5268   20.1662  -13.0659 C   0  0  0  0  0  0
  -24.8251   18.7417  -13.6513 C   0  0  0  0  0  0
  -25.6478   21.4639  -13.2964 C   0  0  0  0  0  0
  -25.1072   23.1499  -13.3933 C   0  0  0  0  0  0
  -23.4224   23.7174  -13.2766 C   0  0  0  0  0  0
  -19.6630   18.8391  -16.1913 C   0  0  0  0  0  0
  -19.2686   17.0376  -16.6459 C   0  0  0  0  0  0
  -18.4722   21.6464  -11.9667 H   0  0  0  0  0  0
  1  2  1  0  0  0
  2  3  1  0  0  0
  3  4  1  0  0  0
  4  5  2  0  0  0
  4  6  1  0  0  0
  6  7  1  0  0  0
  6 23  1  0  0  0
  7  8  1  0  0  0
  8  9  1  0  0  0
  9 10  1  0  0  0
  9 22  1  0  0  0
 10 11  1  0  0  0
 11 12  1  0  0  0
 11 13  1  0  0  0
 12 24  1  0  0  0
 13 14  1  0  0  0
 14 15  1  0  0  0
 15 16  2  0  0  0
 15 21  1  0  0  0
 16 17  1  0  0  0
 17 18  1  0  0  0
 17 19  2  0  0  0
 19 20  1  0  0  0
 20 21  2  0  0  0
 22 23  1  0  0  0
M  END
>  <CHROM.0>
-60.74587495,-169.07045603,73.19928825,62.68733726,-31.34875214,178.11869769
-156.46140960,-163.59458803

>  <CHROM.1>
178.14267963,3.48105590,62.63116716,154.31871828,-173.29781449,63.44691061
-169.98243796,-69.96509835,31.35928480,-19.68245389,19.17657764,-15.34558381
0.86010550,-0.12620381,-2.56185649

>  <Name>
F1438-0010

>  <RI>
2.20839e+07

>  <Rbt.Current_Directory>
/home/adria/Escritorio/rDock_CMTR_LC/2pxcA_model/inputs_sah

>  <Rbt.Executable>
rbdock ($Id: //depot/dev/client3/rdock/2013.1/src/exe/rbdock.cxx#4 $)

>  <Rbt.Library>
libRbt.so (2013.1, Build901 2013/11/27)

>  <Rbt.Parameter_File>
/home/adria/Escritorio/rDock_2013.1_src/data/scripts/dock.prm

>  <Rbt.Receptor>
sah_rdock.prm

>  <SCORE>
-288.474

>  <SCORE.INTER>
-7.52105

>  <SCORE.INTER.CONST>
1

>  <SCORE.INTER.POLAR>
-0.896189

>  <SCORE.INTER.REPUL>
0

>  <SCORE.INTER.ROT>
8

>  <SCORE.INTER.VDW>
-17.874

>  <SCORE.INTER.norm>
-0.327002

>  <SCORE.INTRA>
-274.14

>  <SCORE.INTRA.DIHEDRAL>
-18.1488

>  <SCORE.INTRA.DIHEDRAL.0>
22.9828

>  <SCORE.INTRA.POLAR>
0

>  <SCORE.INTRA.POLAR.0>
0

>  <SCORE.INTRA.REPUL>
0

>  <SCORE.INTRA.REPUL.0>
0

>  <SCORE.INTRA.VDW>
-265.065

>  <SCORE.INTRA.VDW.0>
264.876

>  <SCORE.INTRA.norm>
-11.9191

>  <SCORE.RESTR>
0

>  <SCORE.RESTR.CAVITY>
0

>  <SCORE.RESTR.norm>
0

>  <SCORE.SYSTEM>
-6.8135

>  <SCORE.SYSTEM.CONST>
0

>  <SCORE.SYSTEM.DIHEDRAL>
5.96504

>  <SCORE.SYSTEM.POLAR>
-3.8148

>  <SCORE.SYSTEM.VDW>
3.17431

>  <SCORE.SYSTEM.norm>
-0.296239

>  <SCORE.heavy>
23

>  <SCORE.norm>
-12.5424

$$$$
F1438-0010
  rDOCK(R)          3D
libRbt.so/2013.1/901 2013/11/27
 24 25  0  0  0  0  0  0  0  0999 V2000
  -25.6450   23.6000   -8.9382 C   0  0  0  0  0  0
  -25.5462   23.9754  -10.4012 C   0  0  0  0  0  0
  -25.3336   22.8136  -11.2024 O   0  0  0  0  0  0
  -25.1898   23.0998  -12.5124 C   0  0  0  0  0  0
  -25.0984   24.2321  -12.9885 O   0  0  0  0  0  0
  -24.9720   21.8844  -13.3585 C   0  0  0  0  0  0
  -23.1368   21.3527  -12.8743 C   0  0  0  0  0  0
  -22.8032   19.1743  -12.8172 C   0  0  0  0  0  0
  -24.1332   18.0562  -13.3511 N   0  0  0  0  0  0
  -23.7359   17.4616  -14.6751 C   0  0  0  0  0  0
  -23.7801   18.2407  -16.0302 C   0  0  0  0  0  0
  -24.4251   19.5068  -15.8866 O   0  0  0  0  0  0
  -22.4096   18.4120  -16.6521 C   0  0  0  0  0  0
  -21.5377   19.2054  -15.8876 O   0  0  0  0  0  0
  -20.2555   19.2843  -16.3397 C   0  0  0  0  0  0
  -19.0761   17.8726  -17.1631 C   0  0  0  0  0  0
  -17.3260   18.0331  -17.3277 C   0  0  0  0  0  0
  -16.5151   16.6918  -17.3923 C   0  0  0  0  0  0
  -16.6063   19.4651  -16.6757 C   0  0  0  0  0  0
  -17.5801   20.7059  -15.8655 C   0  0  0  0  0  0
  -19.3437   20.6561  -15.6178 C   0  0  0  0  0  0
  -25.7036   18.6634  -13.3222 C   0  0  0  0  0  0
  -26.2347   20.4719  -13.5573 C   0  0  0  0  0  0
  -23.8376   20.0851  -15.3765 H   0  0  0  0  0  0
  1  2  1  0  0  0
  2  3  1  0  0  0
  3  4  1  0  0  0
  4  5  2  0  0  0
  4  6  1  0  0  0
  6  7  1  0  0  0
  6 23  1  0  0  0
  7  8  1  0  0  0
  8  9  1  0  0  0
  9 10  1  0  0  0
  9 22  1  0  0  0
 10 11  1  0  0  0
 11 12  1  0  0  0
 11 13  1  0  0  0
 12 24  1  0  0  0
 13 14  1  0  0  0
 14 15  1  0  0  0
 15 16  2  0  0  0
 15 21  1  0  0  0
 16 17  1  0  0  0
 17 18  1  0  0  0
 17 19  2  0  0  0
 19 20  1  0  0  0
 20 21  2  0  0  0
 22 23  1  0  0  0
M  END
>  <CHROM.0>
-174.60881427,-70.21133473,72.58863850,-148.34915644,-30.83587929,61.04568200
83.49442126,-161.02969908

>  <CHROM.1>
-177.74272102,7.63157031,-71.75428176,-75.07780053,-8.60998107,70.92838657
-64.53895994,173.96694854,-38.62727344,-22.55834465,20.16249506,-14.32473281
-2.43447315,-0.28124615,-2.56017318

>  <Name>
F1438-0010

>  <RI>
2.20839e+07

>  <Rbt.Current_Directory>
/home/adria/Escritorio/rDock_CMTR_LC/2pxcA_model/inputs_sah

>  <Rbt.Executable>
rbdock ($Id: //depot/dev/client3/rdock/2013.1/src/exe/rbdock.cxx#4 $)

>  <Rbt.Library>
libRbt.so (2013.1, Build901 2013/11/27)

>  <Rbt.Parameter_File>
/home/adria/Escritorio/rDock_2013.1_src/data/scripts/dock.prm

>  <Rbt.Receptor>
sah_rdock.prm

>  <SCORE>
-279.194

>  <SCORE.INTER>
-1.59227

>  <SCORE.INTER.CONST>
1

>  <SCORE.INTER.POLAR>
-0.529812

>  <SCORE.INTER.REPUL>
0

>  <SCORE.INTER.ROT>
8

>  <SCORE.INTER.VDW>
-13.1909

>  <SCORE.INTER.norm>
-0.069229

>  <SCORE.INTRA>
-273.744

>  <SCORE.INTRA.DIHEDRAL>
-14.6693

>  <SCORE.INTRA.DIHEDRAL.0>
22.9828

>  <SCORE.INTRA.POLAR>
0

>  <SCORE.INTRA.POLAR.0>
0

>  <SCORE.INTRA.REPUL>
0

>  <SCORE.INTRA.REPUL.0>
0

>  <SCORE.INTRA.VDW>
-266.409

>  <SCORE.INTRA.VDW.0>
264.876

>  <SCORE.INTRA.norm>
-11.9019

>  <SCORE.RESTR>
0

>  <SCORE.RESTR.CAVITY>
0

>  <SCORE.RESTR.norm>
0

>  <SCORE.SYSTEM>
-3.8578

>  <SCORE.SYSTEM.CONST>
0

>  <SCORE.SYSTEM.DIHEDRAL>
10.084

>  <SCORE.SYSTEM.POLAR>
-3.99448

>  <SCORE.SYSTEM.REPUL>
0.0331801

>  <SCORE.SYSTEM.VDW>
4.51552

>  <SCORE.SYSTEM.norm>
-0.16773

>  <SCORE.heavy>
23

>  <SCORE.norm>
-12.1389

$$$$
F1438-0010
  rDOCK(R)          3D
libRbt.so/2013.1/901 2013/11/27
 24 25  0  0  0  0  0  0  0  0999 V2000
  -14.9021   13.4854  -19.2140 C   0  0  0  0  0  0
  -14.6656   14.9749  -19.0848 C   0  0  0  0  0  0
  -15.5410   15.5374  -18.1080 O   0  0  0  0  0  0
  -15.3155   16.8502  -17.8965 C   0  0  0  0  0  0
  -14.5200   17.5472  -18.5278 O   0  0  0  0  0  0
  -16.2643   17.4575  -16.9109 C   0  0  0  0  0  0
  -15.4565   19.2241  -16.5763 C   0  0  0  0  0  0
  -16.9132   20.8500  -16.2695 C   0  0  0  0  0  0
  -18.6852   20.4533  -16.1876 N   0  0  0  0  0  0
  -19.1315   20.6158  -14.7598 C   0  0  0  0  0  0
  -20.5886   20.3398  -14.2641 C   0  0  0  0  0  0
  -20.8954   18.9451  -14.2873 O   0  0  0  0  0  0
  -20.8594   20.9188  -12.8908 C   0  0  0  0  0  0
  -20.6866   22.3114  -12.8211 O   0  0  0  0  0  0
  -21.0822   22.9018  -11.6592 C   0  0  0  0  0  0
  -22.7383   22.6097  -10.5485 C   0  0  0  0  0  0
  -23.2864   23.7261   -9.2959 C   0  0  0  0  0  0
  -24.8225   23.7036   -8.9784 C   0  0  0  0  0  0
  -22.3653   25.1749   -9.0806 C   0  0  0  0  0  0
  -20.9459   25.5287  -10.0830 C   0  0  0  0  0  0
  -20.3024   24.4994  -11.3870 C   0  0  0  0  0  0
  -19.1811   19.0077  -16.8948 C   0  0  0  0  0  0
  -18.1615   17.4157  -17.0780 C   0  0  0  0  0  0
  -21.8233   18.8391  -14.0279 H   0  0  0  0  0  0
  1  2  1  0  0  0
  2  3  1  0  0  0
  3  4  1  0  0  0
  4  5  2  0  0  0
  4  6  1  0  0  0
  6  7  1  0  0  0
  6 23  1  0  0  0
  7  8  1  0  0  0
  8  9  1  0  0  0
  9 10  1  0  0  0
  9 22  1  0  0  0
 10 11  1  0  0  0
 11 12  1  0  0  0
 11 13  1  0  0  0
 12 24  1  0  0  0
 13 14  1  0  0  0
 14 15  1  0  0  0
 15 16  2  0  0  0
 15 21  1  0  0  0
 16 17  1  0  0  0
 17 18  1  0  0  0
 17 19  2  0  0  0
 19 20  1  0  0  0
 20 21  2  0  0  0
 22 23  1  0  0  0
M  END
>  <CHROM.0>
-60.20057156,-73.69850863,-9.16307389,65.93003786,168.29413427,60.33499318
-37.68194040,-162.90483760

>  <CHROM.1>
176.26636722,5.23171382,169.40493040,-178.74314487,70.13697511,-176.33022974
59.45935095,171.87840555,-43.38434388,-18.95538134,20.06000864,-14.57609372
0.92359488,-0.48957336,-2.67216280

>  <Name>
F1438-0010

>  <RI>
2.20839e+07

>  <Rbt.Current_Directory>
/home/adria/Escritorio/rDock_CMTR_LC/2pxcA_model/inputs_sah

>  <Rbt.Executable>
rbdock ($Id: //depot/dev/client3/rdock/2013.1/src/exe/rbdock.cxx#4 $)

>  <Rbt.Library>
libRbt.so (2013.1, Build901 2013/11/27)

>  <Rbt.Parameter_File>
/home/adria/Escritorio/rDock_2013.1_src/data/scripts/dock.prm

>  <Rbt.Receptor>
sah_rdock.prm

>  <SCORE>
-282.905

>  <SCORE.INTER>
-6.44268

>  <SCORE.INTER.CONST>
1

>  <SCORE.INTER.POLAR>
0

>  <SCORE.INTER.REPUL>
0.128859

>  <SCORE.INTER.ROT>
8

>  <SCORE.INTER.VDW>
-20.487

>  <SCORE.INTER.norm>
-0.280116

>  <SCORE.INTRA>
-273.949

>  <SCORE.INTRA.DIHEDRAL>
-19.4671

>  <SCORE.INTRA.DIHEDRAL.0>
22.9828

>  <SCORE.INTRA.POLAR>
0

>  <SCORE.INTRA.POLAR.0>
0

>  <SCORE.INTRA.REPUL>
0

>  <SCORE.INTRA.REPUL.0>
0

>  <SCORE.INTRA.VDW>
-264.215

>  <SCORE.INTRA.VDW.0>
264.876

>  <SCORE.INTRA.norm>
-11.9108

>  <SCORE.RESTR>
0

>  <SCORE.RESTR.CAVITY>
0

>  <SCORE.RESTR.norm>
0

>  <SCORE.SYSTEM>
-2.51401

>  <SCORE.SYSTEM.CONST>
0

>  <SCORE.SYSTEM.DIHEDRAL>
6.622

>  <SCORE.SYSTEM.POLAR>
-4.52515

>  <SCORE.SYSTEM.REPUL>
0.039759

>  <SCORE.SYSTEM.VDW>
9.36169

>  <SCORE.SYSTEM.norm>
-0.109305

>  <SCORE.heavy>
23

>  <SCORE.norm>
-12.3002

$$$$
F1438-0010
  rDOCK(R)          3D
libRbt.so/2013.1/901 2013/11/27
 24 25  0  0  0  0  0  0  0  0999 V2000
  -15.9712   12.9003  -19.7539 C   0  0  0  0  0  0
  -15.1649   13.9632  -19.0388 C   0  0  0  0  0  0
  -16.0278   14.8595  -18.3396 O   0  0  0  0  0  0
  -15.3553   15.8090  -17.6575 C   0  0  0  0  0  0
  -14.1325   15.9571  -17.6605 O   0  0  0  0  0  0
  -16.2550   16.8120  -17.0057 C   0  0  0  0  0  0
  -14.9808   18.1711  -16.3620 C   0  0  0  0  0  0
  -15.7226   20.2438  -16.4763 C   0  0  0  0  0  0
  -17.4419   20.5469  -16.9825 N   0  0  0  0  0  0
  -18.2116   20.9909  -15.7681 C   0  0  0  0  0  0
  -19.0331   20.0241  -14.8539 C   0  0  0  0  0  0
  -18.1795   19.1529  -14.1108 O   0  0  0  0  0  0
  -19.9783   20.7582  -13.9254 C   0  0  0  0  0  0
  -20.7181   19.9087  -13.0857 O   0  0  0  0  0  0
  -21.6159   20.5201  -12.2640 C   0  0  0  0  0  0
  -22.0263   22.4769  -12.0103 C   0  0  0  0  0  0
  -22.9272   23.1178  -10.6343 C   0  0  0  0  0  0
  -22.6383   24.6133  -10.2592 C   0  0  0  0  0  0
  -23.4128   21.9848   -9.4201 C   0  0  0  0  0  0
  -23.0100   20.2624   -9.5449 C   0  0  0  0  0  0
  -22.0940   19.4946  -10.8661 C   0  0  0  0  0  0
  -18.2063   19.3344  -17.8664 C   0  0  0  0  0  0
  -17.8705   17.4673  -17.7739 C   0  0  0  0  0  0
  -17.6433   19.6974  -13.5145 H   0  0  0  0  0  0
  1  2  1  0  0  0
  2  3  1  0  0  0
  3  4  1  0  0  0
  4  5  2  0  0  0
  4  6  1  0  0  0
  6  7  1  0  0  0
  6 23  1  0  0  0
  7  8  1  0  0  0
  8  9  1  0  0  0
  9 10  1  0  0  0
  9 22  1  0  0  0
 10 11  1  0  0  0
 11 12  1  0  0  0
 11 13  1  0  0  0
 12 24  1  0  0  0
 13 14  1  0  0  0
 14 15  1  0  0  0
 15 16  2  0  0  0
 15 21  1  0  0  0
 16 17  1  0  0  0
 17 18  1  0  0  0
 17 19  2  0  0  0
 19 20  1  0  0  0
 20 21  2  0  0  0
 22 23  1  0  0  0
M  END
>  <CHROM.0>
-62.32964823,-168.19779803,111.27760659,63.67193641,24.07331501,-58.54964023
84.12207227,-165.34334299

>  <CHROM.1>
178.49754847,3.11922378,-171.49152640,-94.28763959,69.46206049,63.74226517
-179.44284471,-177.83312921,-2.09991847,-18.63687911,19.02890840,-14.94811647
0.63761305,-0.78250373,-3.04293090

>  <Name>
F1438-0010

>  <RI>
2.20839e+07

>  <Rbt.Current_Directory>
/home/adria/Escritorio/rDock_CMTR_LC/2pxcA_model/inputs_sah

>  <Rbt.Executable>
rbdock ($Id: //depot/dev/client3/rdock/2013.1/src/exe/rbdock.cxx#4 $)

>  <Rbt.Library>
libRbt.so (2013.1, Build901 2013/11/27)

>  <Rbt.Parameter_File>
/home/adria/Escritorio/rDock_2013.1_src/data/scripts/dock.prm

>  <Rbt.Receptor>
sah_rdock.prm

>  <SCORE>
-276.375

>  <SCORE.INTER>
-7.75662

>  <SCORE.INTER.CONST>
1

>  <SCORE.INTER.POLAR>
-0.848528

>  <SCORE.INTER.REPUL>
0

>  <SCORE.INTER.ROT>
8

>  <SCORE.INTER.VDW>
-18.2716

>  <SCORE.INTER.norm>
-0.337244

>  <SCORE.INTRA>
-274.395

>  <SCORE.INTRA.DIHEDRAL>
-20.0164

>  <SCORE.INTRA.DIHEDRAL.0>
22.9828

>  <SCORE.INTRA.POLAR>
0

>  <SCORE.INTRA.POLAR.0>
0

>  <SCORE.INTRA.REPUL>
0

>  <SCORE.INTRA.REPUL.0>
0

>  <SCORE.INTRA.VDW>
-264.387

>  <SCORE.INTRA.VDW.0>
264.876

>  <SCORE.INTRA.norm>
-11.9302

>  <SCORE.RESTR>
0

>  <SCORE.RESTR.CAVITY>
0

>  <SCORE.RESTR.norm>
0

>  <SCORE.SYSTEM>
5.7767

>  <SCORE.SYSTEM.CONST>
0

>  <SCORE.SYSTEM.DIHEDRAL>
10.4409

>  <SCORE.SYSTEM.POLAR>
-4.07827

>  <SCORE.SYSTEM.VDW>
14.4224

>  <SCORE.SYSTEM.norm>
0.251161

>  <SCORE.heavy>
23

>  <SCORE.norm>
-12.0163

$$$$
F1438-0010
  rDOCK(R)          3D
libRbt.so/2013.1/901 2013/11/27
 24 25  0  0  0  0  0  0  0  0999 V2000
  -18.8969   17.6467  -15.1352 C   0  0  0  0  0  0
  -20.3220   17.1437  -15.0501 C   0  0  0  0  0  0
  -21.1686   18.1355  -14.4701 O   0  0  0  0  0  0
  -21.0280   18.2267  -13.1319 C   0  0  0  0  0  0
  -20.2114   17.5985  -12.4568 O   0  0  0  0  0  0
  -21.8576   19.3160  -12.5272 C   0  0  0  0  0  0
  -23.6921   18.7538  -12.9789 C   0  0  0  0  0  0
  -25.1920   19.2030  -11.4271 C   0  0  0  0  0  0
  -24.6989   20.1629   -9.9643 N   0  0  0  0  0  0
  -25.3106   21.5328  -10.0807 C   0  0  0  0  0  0
  -26.0555   22.2580   -8.9126 C   0  0  0  0  0  0
  -25.2863   22.2413   -7.7093 O   0  0  0  0  0  0
  -26.4570   23.6755   -9.2649 C   0  0  0  0  0  0
  -25.4269   24.6145   -9.0883 O   0  0  0  0  0  0
  -24.3077   24.4170   -9.8388 C   0  0  0  0  0  0
  -22.3645   24.6783   -9.3724 C   0  0  0  0  0  0
  -21.0720   24.7575  -10.5719 C   0  0  0  0  0  0
  -19.7866   25.5499  -10.1469 C   0  0  0  0  0  0
  -21.5407   24.6693  -12.2351 C   0  0  0  0  0  0
  -23.2422   24.5224  -12.7123 C   0  0  0  0  0  0
  -24.6373   24.4517  -11.6065 C   0  0  0  0  0  0
  -23.0607   20.1804   -9.5749 C   0  0  0  0  0  0
  -21.5981   20.0196  -10.7760 C   0  0  0  0  0  0
  -24.4529   22.7056   -7.8812 H   0  0  0  0  0  0
  1  2  1  0  0  0
  2  3  1  0  0  0
  3  4  1  0  0  0
  4  5  2  0  0  0
  4  6  1  0  0  0
  6  7  1  0  0  0
  6 23  1  0  0  0
  7  8  1  0  0  0
  8  9  1  0  0  0
  9 10  1  0  0  0
  9 22  1  0  0  0
 10 11  1  0  0  0
 11 12  1  0  0  0
 11 13  1  0  0  0
 12 24  1  0  0  0
 13 14  1  0  0  0
 14 15  1  0  0  0
 15 16  2  0  0  0
 15 21  1  0  0  0
 16 17  1  0  0  0
 17 18  1  0  0  0
 17 19  2  0  0  0
 19 20  1  0  0  0
 20 21  2  0  0  0
 22 23  1  0  0  0
M  END
>  <CHROM.0>
-179.61669930,-76.44049306,110.38247461,61.74821357,-29.45645393,56.76686448
-38.07533472,-162.85040434

>  <CHROM.1>
-76.54075392,4.23485918,61.52616368,133.63620737,49.64735923,60.70041826
-83.14954325,60.90161750,-141.93840829,-22.91506269,21.39867111,-11.25445278
-1.01706723,0.53366683,0.31486267

>  <Name>
F1438-0010

>  <RI>
2.20839e+07

>  <Rbt.Current_Directory>
/home/adria/Escritorio/rDock_CMTR_LC/2pxcA_model/inputs_sah

>  <Rbt.Executable>
rbdock ($Id: //depot/dev/client3/rdock/2013.1/src/exe/rbdock.cxx#4 $)

>  <Rbt.Library>
libRbt.so (2013.1, Build901 2013/11/27)

>  <Rbt.Parameter_File>
/home/adria/Escritorio/rDock_2013.1_src/data/scripts/dock.prm

>  <Rbt.Receptor>
sah_rdock.prm

>  <SCORE>
-290.526

>  <SCORE.INTER>
-12.3021

>  <SCORE.INTER.CONST>
1

>  <SCORE.INTER.POLAR>
-1.92419

>  <SCORE.INTER.REPUL>
0

>  <SCORE.INTER.ROT>
8

>  <SCORE.INTER.VDW>
-19.1598

>  <SCORE.INTER.norm>
-0.534873

>  <SCORE.INTRA>
-271.214

>  <SCORE.INTRA.DIHEDRAL>
-14.1387

>  <SCORE.INTRA.DIHEDRAL.0>
22.9828

>  <SCORE.INTRA.POLAR>
0

>  <SCORE.INTRA.POLAR.0>
0

>  <SCORE.INTRA.REPUL>
0

>  <SCORE.INTRA.REPUL.0>
0

>  <SCORE.INTRA.VDW>
-264.145

>  <SCORE.INTRA.VDW.0>
264.876

>  <SCORE.INTRA.norm>
-11.7919

>  <SCORE.RESTR>
0

>  <SCORE.RESTR.CAVITY>
0

>  <SCORE.RESTR.norm>
0

>  <SCORE.SYSTEM>
-7.01006

>  <SCORE.SYSTEM.CONST>
0

>  <SCORE.SYSTEM.DIHEDRAL>
9.85265

>  <SCORE.SYSTEM.POLAR>
-4.62438

>  <SCORE.SYSTEM.REPUL>
0.0440921

>  <SCORE.SYSTEM.VDW>
3.56607

>  <SCORE.SYSTEM.norm>
-0.304785

>  <SCORE.heavy>
23

>  <SCORE.norm>
-12.6316

$$$$
F1438-0010
  rDOCK(R)          3D
libRbt.so/2013.1/901 2013/11/27
 24 25  0  0  0  0  0  0  0  0999 V2000
  -14.6257   13.7540  -19.4891 C   0  0  0  0  0  0
  -14.7114   14.3552  -18.1026 C   0  0  0  0  0  0
  -15.7798   15.2988  -18.0318 O   0  0  0  0  0  0
  -15.7596   16.0289  -16.8981 C   0  0  0  0  0  0
  -14.8482   16.0331  -16.0695 O   0  0  0  0  0  0
  -16.8964   16.9980  -16.8035 C   0  0  0  0  0  0
  -18.3540   15.8759  -16.0954 C   0  0  0  0  0  0
  -19.7047   16.9119  -14.6947 C   0  0  0  0  0  0
  -19.4983   18.6961  -14.4149 N   0  0  0  0  0  0
  -20.6458   19.4059  -15.0810 C   0  0  0  0  0  0
  -22.0834   19.5022  -14.4734 C   0  0  0  0  0  0
  -22.6509   18.2089  -14.2609 O   0  0  0  0  0  0
  -22.1259   20.3156  -13.1962 C   0  0  0  0  0  0
  -21.6735   21.6366  -13.3528 O   0  0  0  0  0  0
  -21.7488   22.4256  -12.2452 C   0  0  0  0  0  0
  -22.8644   22.2269  -10.5785 C   0  0  0  0  0  0
  -23.1379   23.5322   -9.4222 C   0  0  0  0  0  0
  -24.4526   23.4340   -8.5720 C   0  0  0  0  0  0
  -22.4512   25.0736   -9.8046 C   0  0  0  0  0  0
  -21.5292   25.3335  -11.2968 C   0  0  0  0  0  0
  -21.1989   24.1106  -12.5496 C   0  0  0  0  0  0
  -17.9912   19.3587  -14.7688 C   0  0  0  0  0  0
  -16.7553   18.7540  -16.0783 C   0  0  0  0  0  0
  -22.7192   17.7677  -15.1213 H   0  0  0  0  0  0
  1  2  1  0  0  0
  2  3  1  0  0  0
  3  4  1  0  0  0
  4  5  2  0  0  0
  4  6  1  0  0  0
  6  7  1  0  0  0
  6 23  1  0  0  0
  7  8  1  0  0  0
  8  9  1  0  0  0
  9 10  1  0  0  0
  9 22  1  0  0  0
 10 11  1  0  0  0
 11 12  1  0  0  0
 11 13  1  0  0  0
 12 24  1  0  0  0
 13 14  1  0  0  0
 14 15  1  0  0  0
 15 16  2  0  0  0
 15 21  1  0  0  0
 16 17  1  0  0  0
 17 18  1  0  0  0
 17 19  2  0  0  0
 19 20  1  0  0  0
 20 21  2  0  0  0
 22 23  1  0  0  0
M  END
>  <CHROM.0>
-62.20305832,-75.30480936,110.42129655,151.37678189,167.83931675,177.81250731
-38.23790111,-167.09231884

>  <CHROM.1>
-169.31859643,8.75076412,83.49086572,78.58966507,-59.21408380,-61.56446962
58.85929669,177.17788143,-20.13277474,-19.57709858,19.32056396,-14.27372475
-0.94631647,0.30468105,0.49035712

>  <Name>
F1438-0010

>  <RI>
2.20839e+07

>  <Rbt.Current_Directory>
/home/adria/Escritorio/rDock_CMTR_LC/2pxcA_model/inputs_sah

>  <Rbt.Executable>
rbdock ($Id: //depot/dev/client3/rdock/2013.1/src/exe/rbdock.cxx#4 $)

>  <Rbt.Library>
libRbt.so (2013.1, Build901 2013/11/27)

>  <Rbt.Parameter_File>
/home/adria/Escritorio/rDock_2013.1_src/data/scripts/dock.prm

>  <Rbt.Receptor>
sah_rdock.prm

>  <SCORE>
-278.02

>  <SCORE.INTER>
-3.85192

>  <SCORE.INTER.CONST>
1

>  <SCORE.INTER.POLAR>
0

>  <SCORE.INTER.REPUL>
0

>  <SCORE.INTER.ROT>
8

>  <SCORE.INTER.VDW>
-17.2519

>  <SCORE.INTER.norm>
-0.167475

>  <SCORE.INTRA>
-274.964

>  <SCORE.INTRA.DIHEDRAL>
-18.8628

>  <SCORE.INTRA.DIHEDRAL.0>
22.9828

>  <SCORE.INTRA.POLAR>
0

>  <SCORE.INTRA.POLAR.0>
0

>  <SCORE.INTRA.REPUL>
0

>  <SCORE.INTRA.REPUL.0>
0

>  <SCORE.INTRA.VDW>
-265.533

>  <SCORE.INTRA.VDW.0>
264.876

>  <SCORE.INTRA.norm>
-11.955

>  <SCORE.RESTR>
0

>  <SCORE.RESTR.CAVITY>
0

>  <SCORE.RESTR.norm>
0

>  <SCORE.SYSTEM>
0.796349

>  <SCORE.SYSTEM.CONST>
0

>  <SCORE.SYSTEM.DIHEDRAL>
9.84241

>  <SCORE.SYSTEM.POLAR>
-4.51805

>  <SCORE.SYSTEM.REPUL>
0.0423891

>  <SCORE.SYSTEM.VDW>
11.0246

>  <SCORE.SYSTEM.norm>
0.0346239

>  <SCORE.heavy>
23

>  <SCORE.norm>
-12.0878

$$$$
F1438-0010
  rDOCK(R)          3D
libRbt.so/2013.1/901 2013/11/27
 24 25  0  0  0  0  0  0  0  0999 V2000
  -14.5387   18.2207  -18.0148 C   0  0  0  0  0  0
  -14.3891   18.8380  -16.6408 C   0  0  0  0  0  0
  -15.6356   18.8196  -15.9459 O   0  0  0  0  0  0
  -16.4870   19.7748  -16.3720 C   0  0  0  0  0  0
  -16.2506   20.5955  -17.2595 O   0  0  0  0  0  0
  -17.8553   19.6489  -15.7785 C   0  0  0  0  0  0
  -18.3426   17.7916  -16.2237 C   0  0  0  0  0  0
  -19.5295   16.7639  -14.6762 C   0  0  0  0  0  0
  -20.0969   17.6978  -13.2236 N   0  0  0  0  0  0
  -21.5821   17.9010  -13.3539 C   0  0  0  0  0  0
  -22.4874   18.4763  -12.2161 C   0  0  0  0  0  0
  -22.3750   17.7082  -11.0173 O   0  0  0  0  0  0
  -22.2154   19.9397  -11.9349 C   0  0  0  0  0  0
  -22.8961   20.8163  -12.7966 O   0  0  0  0  0  0
  -22.4991   22.1184  -12.7544 C   0  0  0  0  0  0
  -20.9466   22.9759  -11.7971 C   0  0  0  0  0  0
  -20.8042   24.7139  -11.5239 C   0  0  0  0  0  0
  -19.9321   25.1479  -10.2943 C   0  0  0  0  0  0
  -22.1195   25.7014  -12.0613 C   0  0  0  0  0  0
  -23.5510   24.9977  -12.8360 C   0  0  0  0  0  0
  -23.8256   23.2660  -13.1517 C   0  0  0  0  0  0
  -19.2501   19.1005  -12.8348 C   0  0  0  0  0  0
  -18.3308   20.2507  -14.0347 C   0  0  0  0  0  0
  -22.5431   16.7800  -11.2405 H   0  0  0  0  0  0
  1  2  1  0  0  0
  2  3  1  0  0  0
  3  4  1  0  0  0
  4  5  2  0  0  0
  4  6  1  0  0  0
  6  7  1  0  0  0
  6 23  1  0  0  0
  7  8  1  0  0  0
  8  9  1  0  0  0
  9 10  1  0  0  0
  9 22  1  0  0  0
 10 11  1  0  0  0
 11 12  1  0  0  0
 11 13  1  0  0  0
 12 24  1  0  0  0
 13 14  1  0  0  0
 14 15  1  0  0  0
 15 16  2  0  0  0
 15 21  1  0  0  0
 16 17  1  0  0  0
 17 18  1  0  0  0
 17 19  2  0  0  0
 19 20  1  0  0  0
 20 21  2  0  0  0
 22 23  1  0  0  0
M  END
>  <CHROM.0>
-63.10709303,-168.29595097,75.60177019,70.95828459,-32.20319168,179.22422075
72.18096974,-164.02538214

>  <CHROM.1>
-76.84160290,-0.19668110,-54.27431963,170.78299634,-56.31504105,-52.99217659
83.77472910,-168.15355631,7.57137688,-19.76350435,20.39087890,-13.79693859
-0.58163313,0.57964759,0.11469783

>  <Name>
F1438-0010

>  <RI>
2.20839e+07

>  <Rbt.Current_Directory>
/home/adria/Escritorio/rDock_CMTR_LC/2pxcA_model/inputs_sah

>  <Rbt.Executable>
rbdock ($Id: //depot/dev/client3/rdock/2013.1/src/exe/rbdock.cxx#4 $)

>  <Rbt.Library>
libRbt.so (2013.1, Build901 2013/11/27)

>  <Rbt.Parameter_File>
/home/adria/Escritorio/rDock_2013.1_src/data/scripts/dock.prm

>  <Rbt.Receptor>
sah_rdock.prm

>  <SCORE>
-297.513

>  <SCORE.INTER>
-18.7415

>  <SCORE.INTER.CONST>
1

>  <SCORE.INTER.POLAR>
-2.41295

>  <SCORE.INTER.REPUL>
0.0221013

>  <SCORE.INTER.ROT>
8

>  <SCORE.INTER.VDW>
-24.048

>  <SCORE.INTER.norm>
-0.81485

>  <SCORE.INTRA>
-272.903

>  <SCORE.INTRA.DIHEDRAL>
-17.1347

>  <SCORE.INTRA.DIHEDRAL.0>
22.9828

>  <SCORE.INTRA.POLAR>
0

>  <SCORE.INTRA.POLAR.0>
0

>  <SCORE.INTRA.REPUL>
0

>  <SCORE.INTRA.REPUL.0>
0

>  <SCORE.INTRA.VDW>
-264.335

>  <SCORE.INTRA.VDW.0>
264.876

>  <SCORE.INTRA.norm>
-11.8653

>  <SCORE.RESTR>
0

>  <SCORE.RESTR.CAVITY>
0

>  <SCORE.RESTR.norm>
0

>  <SCORE.SYSTEM>
-5.86931

>  <SCORE.SYSTEM.CONST>
0

>  <SCORE.SYSTEM.DIHEDRAL>
5.75189

>  <SCORE.SYSTEM.POLAR>
-3.39552

>  <SCORE.SYSTEM.VDW>
2.79952

>  <SCORE.SYSTEM.norm>
-0.255187

>  <SCORE.heavy>
23

>  <SCORE.norm>
-12.9354

$$$$
F1438-0010
  rDOCK(R)          3D
libRbt.so/2013.1/901 2013/11/27
 24 25  0  0  0  0  0  0  0  0999 V2000
  -18.4029   19.7880  -17.8584 C   0  0  0  0  0  0
  -19.1292   18.8862  -16.8835 C   0  0  0  0  0  0
  -20.0316   19.6440  -16.0784 O   0  0  0  0  0  0
  -20.6507   18.8975  -15.1412 C   0  0  0  0  0  0
  -20.4732   17.6924  -14.9584 O   0  0  0  0  0  0
  -21.4761   19.7108  -14.1937 C   0  0  0  0  0  0
  -21.9413   18.3972  -12.7997 C   0  0  0  0  0  0
  -22.0200   19.2233  -10.7574 C   0  0  0  0  0  0
  -21.8188   21.0133  -10.5134 N   0  0  0  0  0  0
  -23.1586   21.5832  -10.1334 C   0  0  0  0  0  0
  -23.8671   21.3105   -8.7663 C   0  0  0  0  0  0
  -22.9239   21.2004   -7.6994 O   0  0  0  0  0  0
  -24.9215   22.3467   -8.4363 C   0  0  0  0  0  0
  -24.3927   23.6088   -8.1177 O   0  0  0  0  0  0
  -23.9516   24.3512   -9.1709 C   0  0  0  0  0  0
  -24.5346   24.3493  -11.1001 C   0  0  0  0  0  0
  -23.5994   25.0810  -12.4062 C   0  0  0  0  0  0
  -23.8368   24.4873  -13.8386 C   0  0  0  0  0  0
  -22.0703   25.7712  -11.9828 C   0  0  0  0  0  0
  -21.4642   25.7308  -10.3168 C   0  0  0  0  0  0
  -22.2973   25.0095   -8.9169 C   0  0  0  0  0  0
  -21.0364   21.8706  -11.7334 C   0  0  0  0  0  0
  -21.0107   21.4556  -13.5867 C   0  0  0  0  0  0
  -22.3371   21.9710   -7.7390 H   0  0  0  0  0  0
  1  2  1  0  0  0
  2  3  1  0  0  0
  3  4  1  0  0  0
  4  5  2  0  0  0
  4  6  1  0  0  0
  6  7  1  0  0  0
  6 23  1  0  0  0
  7  8  1  0  0  0
  8  9  1  0  0  0
  9 10  1  0  0  0
  9 22  1  0  0  0
 10 11  1  0  0  0
 11 12  1  0  0  0
 11 13  1  0  0  0
 12 24  1  0  0  0
 13 14  1  0  0  0
 14 15  1  0  0  0
 15 16  2  0  0  0
 15 21  1  0  0  0
 16 17  1  0  0  0
 17 18  1  0  0  0
 17 19  2  0  0  0
 19 20  1  0  0  0
 20 21  2  0  0  0
 22 23  1  0  0  0
M  END
>  <CHROM.0>
-57.94805036,-75.27963750,-166.98738760,66.97798592,-32.82937013,56.70570129
-157.72730816,-167.88047345

>  <CHROM.1>
-176.54629263,0.74023444,-169.82391341,69.48882301,34.82818732,50.59206617
-70.32583233,76.21290278,27.62399923,-22.10031494,21.71893484,-11.99377656
-0.21488372,1.13182582,-0.36733171

>  <Name>
F1438-0010

>  <RI>
2.20839e+07

>  <Rbt.Current_Directory>
/home/adria/Escritorio/rDock_CMTR_LC/2pxcA_model/inputs_sah

>  <Rbt.Executable>
rbdock ($Id: //depot/dev/client3/rdock/2013.1/src/exe/rbdock.cxx#4 $)

>  <Rbt.Library>
libRbt.so (2013.1, Build901 2013/11/27)

>  <Rbt.Parameter_File>
/home/adria/Escritorio/rDock_2013.1_src/data/scripts/dock.prm

>  <Rbt.Receptor>
sah_rdock.prm

>  <SCORE>
-290.635

>  <SCORE.INTER>
-10.1906

>  <SCORE.INTER.CONST>
1

>  <SCORE.INTER.POLAR>
-1.51129

>  <SCORE.INTER.REPUL>
0.268073

>  <SCORE.INTER.ROT>
8

>  <SCORE.INTER.VDW>
-19.7926

>  <SCORE.INTER.norm>
-0.443071

>  <SCORE.INTRA>
-272.918

>  <SCORE.INTRA.DIHEDRAL>
-15.3043

>  <SCORE.INTRA.DIHEDRAL.0>
22.9828

>  <SCORE.INTRA.POLAR>
0

>  <SCORE.INTRA.POLAR.0>
0

>  <SCORE.INTRA.REPUL>
0

>  <SCORE.INTRA.REPUL.0>
0

>  <SCORE.INTRA.VDW>
-265.266

>  <SCORE.INTRA.VDW.0>
264.876

>  <SCORE.INTRA.norm>
-11.866

>  <SCORE.RESTR>
0

>  <SCORE.RESTR.CAVITY>
0

>  <SCORE.RESTR.norm>
0

>  <SCORE.SYSTEM>
-7.52583

>  <SCORE.SYSTEM.CONST>
0

>  <SCORE.SYSTEM.DIHEDRAL>
6.15029

>  <SCORE.SYSTEM.POLAR>
-4.00336

>  <SCORE.SYSTEM.REPUL>
0.0423498

>  <SCORE.SYSTEM.VDW>
2.79871

>  <SCORE.SYSTEM.norm>
-0.32721

>  <SCORE.heavy>
23

>  <SCORE.norm>
-12.6363

$$$$
F1438-0010
  rDOCK(R)          3D
libRbt.so/2013.1/901 2013/11/27
 24 25  0  0  0  0  0  0  0  0999 V2000
  -14.4200   20.7753  -16.7803 C   0  0  0  0  0  0
  -14.7931   19.3927  -17.2706 C   0  0  0  0  0  0
  -15.8249   18.8352  -16.4572 O   0  0  0  0  0  0
  -17.0461   19.3268  -16.7502 C   0  0  0  0  0  0
  -17.2986   20.1059  -17.6702 O   0  0  0  0  0  0
  -18.1407   18.6976  -15.9462 C   0  0  0  0  0  0
  -18.0048   19.6491  -14.2253 C   0  0  0  0  0  0
  -19.9387   20.0290  -13.2377 C   0  0  0  0  0  0
  -21.4566   19.3336  -13.9565 N   0  0  0  0  0  0
  -21.9208   18.2134  -13.0655 C   0  0  0  0  0  0
  -22.6353   18.4301  -11.6915 C   0  0  0  0  0  0
  -23.0062   17.1882  -11.0915 O   0  0  0  0  0  0
  -21.8117   19.2589  -10.7275 C   0  0  0  0  0  0
  -22.4733   19.5458   -9.5217 O   0  0  0  0  0  0
  -23.6111   20.2864   -9.6298 C   0  0  0  0  0  0
  -24.7841   20.6449  -11.2290 C   0  0  0  0  0  0
  -25.9874   21.9349  -11.2909 C   0  0  0  0  0  0
  -26.3501   22.4694  -12.7205 C   0  0  0  0  0  0
  -26.0941   22.9731   -9.9109 C   0  0  0  0  0  0
  -25.0326   22.7604   -8.5064 C   0  0  0  0  0  0
  -23.7703   21.5160   -8.3271 C   0  0  0  0  0  0
  -21.4164   18.9304  -15.5910 C   0  0  0  0  0  0
  -19.9026   18.3751  -16.5948 C   0  0  0  0  0  0
  -23.5123   16.6806  -11.7441 H   0  0  0  0  0  0
  1  2  1  0  0  0
  2  3  1  0  0  0
  3  4  1  0  0  0
  4  5  2  0  0  0
  4  6  1  0  0  0
  6  7  1  0  0  0
  6 23  1  0  0  0
  7  8  1  0  0  0
  8  9  1  0  0  0
  9 10  1  0  0  0
  9 22  1  0  0  0
 10 11  1  0  0  0
 11 12  1  0  0  0
 11 13  1  0  0  0
 12 24  1  0  0  0
 13 14  1  0  0  0
 14 15  1  0  0  0
 15 16  2  0  0  0
 15 21  1  0  0  0
 16 17  1  0  0  0
 17 18  1  0  0  0
 17 19  2  0  0  0
 19 20  1  0  0  0
 20 21  2  0  0  0
 22 23  1  0  0  0
M  END
>  <CHROM.0>
-56.52244098,-167.19790707,-9.13061943,62.92355874,32.07370843,64.14063823
-36.43511260,-164.54128087

>  <CHROM.1>
78.27065077,4.61248762,79.69028764,76.00068833,177.78112661,-52.49676934
175.75195849,-62.33568566,18.21565559,-21.02134469,19.88984860,-13.21030020
0.40832090,0.57015196,-0.92875713

>  <Name>
F1438-0010

>  <RI>
2.20839e+07

>  <Rbt.Current_Directory>
/home/adria/Escritorio/rDock_CMTR_LC/2pxcA_model/inputs_sah

>  <Rbt.Executable>
rbdock ($Id: //depot/dev/client3/rdock/2013.1/src/exe/rbdock.cxx#4 $)

>  <Rbt.Library>
libRbt.so (2013.1, Build901 2013/11/27)

>  <Rbt.Parameter_File>
/home/adria/Escritorio/rDock_2013.1_src/data/scripts/dock.prm

>  <Rbt.Receptor>
sah_rdock.prm

>  <SCORE>
-277.54

>  <SCORE.INTER>
-10.5227

>  <SCORE.INTER.CONST>
1

>  <SCORE.INTER.POLAR>
-1.70024

>  <SCORE.INTER.REPUL>
0

>  <SCORE.INTER.ROT>
8

>  <SCORE.INTER.VDW>
-18.1419

>  <SCORE.INTER.norm>
-0.457508

>  <SCORE.INTRA>
-272.793

>  <SCORE.INTRA.DIHEDRAL>
-17.2329

>  <SCORE.INTRA.DIHEDRAL.0>
22.9828

>  <SCORE.INTRA.POLAR>
0

>  <SCORE.INTRA.POLAR.0>
0

>  <SCORE.INTRA.REPUL>
0

>  <SCORE.INTRA.REPUL.0>
0

>  <SCORE.INTRA.VDW>
-264.176

>  <SCORE.INTRA.VDW.0>
264.876

>  <SCORE.INTRA.norm>
-11.8606

>  <SCORE.RESTR>
0

>  <SCORE.RESTR.CAVITY>
0

>  <SCORE.RESTR.norm>
0

>  <SCORE.SYSTEM>
5.77579

>  <SCORE.SYSTEM.CONST>
0

>  <SCORE.SYSTEM.DIHEDRAL>
9.07687

>  <SCORE.SYSTEM.POLAR>
-4.02368

>  <SCORE.SYSTEM.VDW>
14.9179

>  <SCORE.SYSTEM.norm>
0.251121

>  <SCORE.heavy>
23

>  <SCORE.norm>
-12.0669

$$$$
F1438-0010
  rDOCK(R)          3D
libRbt.so/2013.1/901 2013/11/27
 24 25  0  0  0  0  0  0  0  0999 V2000
  -14.2329   18.7468  -17.6361 C   0  0  0  0  0  0
  -15.1665   19.7787  -17.0404 C   0  0  0  0  0  0
  -16.0591   19.1674  -16.1096 O   0  0  0  0  0  0
  -17.0459   19.9950  -15.7092 C   0  0  0  0  0  0
  -17.2189   21.1454  -16.1137 O   0  0  0  0  0  0
  -18.0528   19.3247  -14.8276 C   0  0  0  0  0  0
  -19.5094   20.6510  -14.7610 C   0  0  0  0  0  0
  -21.5339   19.7805  -14.7043 C   0  0  0  0  0  0
  -21.7238   17.9779  -14.5666 N   0  0  0  0  0  0
  -22.2199   17.6684  -13.1801 C   0  0  0  0  0  0
  -21.4640   18.0726  -11.8722 C   0  0  0  0  0  0
  -20.0478   17.9887  -12.0376 O   0  0  0  0  0  0
  -21.8580   19.4458  -11.3688 C   0  0  0  0  0  0
  -21.1137   20.4916  -11.9401 O   0  0  0  0  0  0
  -21.5567   21.7514  -11.6723 C   0  0  0  0  0  0
  -23.1597   22.3716  -10.6200 C   0  0  0  0  0  0
  -23.8093   24.0109  -10.7007 C   0  0  0  0  0  0
  -25.3306   24.1662  -10.3510 C   0  0  0  0  0  0
  -23.0450   25.1025  -11.8044 C   0  0  0  0  0  0
  -21.6827   24.5928  -12.8187 C   0  0  0  0  0  0
  -20.9481   22.9699  -12.8467 C   0  0  0  0  0  0
  -20.4184   17.0300  -15.0492 C   0  0  0  0  0  0
  -18.5793   17.5010  -14.9894 C   0  0  0  0  0  0
  -19.6328   18.2905  -11.2152 H   0  0  0  0  0  0
  1  2  1  0  0  0
  2  3  1  0  0  0
  3  4  1  0  0  0
  4  5  2  0  0  0
  4  6  1  0  0  0
  6  7  1  0  0  0
  6 23  1  0  0  0
  7  8  1  0  0  0
  8  9  1  0  0  0
  9 10  1  0  0  0
  9 22  1  0  0  0
 10 11  1  0  0  0
 11 12  1  0  0  0
 11 13  1  0  0  0
 12 24  1  0  0  0
 13 14  1  0  0  0
 14 15  1  0  0  0
 15 16  2  0  0  0
 15 21  1  0  0  0
 16 17  1  0  0  0
 17 18  1  0  0  0
 17 19  2  0  0  0
 19 20  1  0  0  0
 20 21  2  0  0  0
 22 23  1  0  0  0
M  END
>  <CHROM.0>
-168.98418229,-73.43167461,-46.19043082,65.19594876,168.21933868,-60.47530831
83.28809175,-55.35793583

>  <CHROM.1>
-170.13639668,2.34567808,-168.13295177,-58.24140825,-35.73297769,177.25794382
-86.81625647,170.72026774,-2.05681321,-20.17399896,20.34604401,-13.64088527
-0.47391859,0.61835609,0.05249501

>  <Name>
F1438-0010

>  <RI>
2.20839e+07

>  <Rbt.Current_Directory>
/home/adria/Escritorio/rDock_CMTR_LC/2pxcA_model/inputs_sah

>  <Rbt.Executable>
rbdock ($Id: //depot/dev/client3/rdock/2013.1/src/exe/rbdock.cxx#4 $)

>  <Rbt.Library>
libRbt.so (2013.1, Build901 2013/11/27)

>  <Rbt.Parameter_File>
/home/adria/Escritorio/rDock_2013.1_src/data/scripts/dock.prm

>  <Rbt.Receptor>
sah_rdock.prm

>  <SCORE>
-285.103

>  <SCORE.INTER>
-12.0007

>  <SCORE.INTER.CONST>
1

>  <SCORE.INTER.POLAR>
-1.45219

>  <SCORE.INTER.REPUL>
0

>  <SCORE.INTER.ROT>
8

>  <SCORE.INTER.VDW>
-20.4633

>  <SCORE.INTER.norm>
-0.521771

>  <SCORE.INTRA>
-273.315

>  <SCORE.INTRA.DIHEDRAL>
-16.3089

>  <SCORE.INTRA.DIHEDRAL.0>
22.9828

>  <SCORE.INTRA.POLAR>
0

>  <SCORE.INTRA.POLAR.0>
0

>  <SCORE.INTRA.REPUL>
0

>  <SCORE.INTRA.REPUL.0>
0

>  <SCORE.INTRA.VDW>
-265.161

>  <SCORE.INTRA.VDW.0>
264.876

>  <SCORE.INTRA.norm>
-11.8833

>  <SCORE.RESTR>
0

>  <SCORE.RESTR.CAVITY>
0

>  <SCORE.RESTR.norm>
0

>  <SCORE.SYSTEM>
0.21298

>  <SCORE.SYSTEM.CONST>
0

>  <SCORE.SYSTEM.DIHEDRAL>
7.11071

>  <SCORE.SYSTEM.POLAR>
-3.54486

>  <SCORE.SYSTEM.REPUL>
0.0392973

>  <SCORE.SYSTEM.VDW>
8.51365

>  <SCORE.SYSTEM.norm>
0.00925999

>  <SCORE.heavy>
23

>  <SCORE.norm>
-12.3958

$$$$
F1438-0010
  rDOCK(R)          3D
libRbt.so/2013.1/901 2013/11/27
 24 25  0  0  0  0  0  0  0  0999 V2000
  -13.8001   20.9876  -17.2628 C   0  0  0  0  0  0
  -14.5254   19.7116  -17.6332 C   0  0  0  0  0  0
  -15.9121   19.8132  -17.3115 O   0  0  0  0  0  0
  -16.5860   18.6656  -17.5299 C   0  0  0  0  0  0
  -16.1409   17.6788  -18.1175 O   0  0  0  0  0  0
  -17.9079   18.6185  -16.8293 C   0  0  0  0  0  0
  -18.2148   16.6816  -16.6303 C   0  0  0  0  0  0
  -19.2223   16.1055  -14.7561 C   0  0  0  0  0  0
  -19.8247   17.4029  -13.6345 N   0  0  0  0  0  0
  -21.3272   17.4240  -13.7142 C   0  0  0  0  0  0
  -22.2016   18.6755  -13.3759 C   0  0  0  0  0  0
  -23.5634   18.4837  -13.7612 O   0  0  0  0  0  0
  -22.1150   19.0732  -11.9169 C   0  0  0  0  0  0
  -22.9394   20.1593  -11.5778 O   0  0  0  0  0  0
  -22.4897   21.3877  -11.9569 C   0  0  0  0  0  0
  -20.8614   22.4177  -11.3654 C   0  0  0  0  0  0
  -20.6378   24.1448  -11.6530 C   0  0  0  0  0  0
  -19.6927   24.8928  -10.6489 C   0  0  0  0  0  0
  -21.9366   24.9840  -12.4292 C   0  0  0  0  0  0
  -23.4295   24.1503  -12.8993 C   0  0  0  0  0  0
  -23.7869   22.4229  -12.6497 C   0  0  0  0  0  0
  -19.1151   18.9240  -13.7698 C   0  0  0  0  0  0
  -18.3721   19.7040  -15.3342 C   0  0  0  0  0  0
  -23.5916   18.3987  -14.7264 H   0  0  0  0  0  0
  1  2  1  0  0  0
  2  3  1  0  0  0
  3  4  1  0  0  0
  4  5  2  0  0  0
  4  6  1  0  0  0
  6  7  1  0  0  0
  6 23  1  0  0  0
  7  8  1  0  0  0
  8  9  1  0  0  0
  9 10  1  0  0  0
  9 22  1  0  0  0
 10 11  1  0  0  0
 11 12  1  0  0  0
 11 13  1  0  0  0
 12 24  1  0  0  0
 13 14  1  0  0  0
 14 15  1  0  0  0
 15 16  2  0  0  0
 15 21  1  0  0  0
 16 17  1  0  0  0
 17 18  1  0  0  0
 17 19  2  0  0  0
 19 20  1  0  0  0
 20 21  2  0  0  0
 22 23  1  0  0  0
M  END
>  <CHROM.0>
-57.30406789,-73.60939649,70.72084390,61.21151307,168.31859090,-53.60544389
83.19281200,-163.34198116

>  <CHROM.1>
-175.35491391,-9.96080352,-154.84752307,-155.44804693,169.76097047,-64.38694095
-177.31271277,-76.83076227,-65.02626875,-19.71651256,20.03768830,-14.25826835
-0.61444262,0.54292036,0.32773327

>  <Name>
F1438-0010

>  <RI>
2.20839e+07

>  <Rbt.Current_Directory>
/home/adria/Escritorio/rDock_CMTR_LC/2pxcA_model/inputs_sah

>  <Rbt.Executable>
rbdock ($Id: //depot/dev/client3/rdock/2013.1/src/exe/rbdock.cxx#4 $)

>  <Rbt.Library>
libRbt.so (2013.1, Build901 2013/11/27)

>  <Rbt.Parameter_File>
/home/adria/Escritorio/rDock_2013.1_src/data/scripts/dock.prm

>  <Rbt.Receptor>
sah_rdock.prm

>  <SCORE>
-286.423

>  <SCORE.INTER>
-12.6344

>  <SCORE.INTER.CONST>
1

>  <SCORE.INTER.POLAR>
-1.3846

>  <SCORE.INTER.REPUL>
0

>  <SCORE.INTER.ROT>
8

>  <SCORE.INTER.VDW>
-21.3267

>  <SCORE.INTER.norm>
-0.54932

>  <SCORE.INTRA>
-271.154

>  <SCORE.INTRA.DIHEDRAL>
-13.1658

>  <SCORE.INTRA.DIHEDRAL.0>
22.9828

>  <SCORE.INTRA.POLAR>
0

>  <SCORE.INTRA.POLAR.0>
0

>  <SCORE.INTRA.REPUL>
0

>  <SCORE.INTRA.REPUL.0>
0

>  <SCORE.INTRA.VDW>
-264.571

>  <SCORE.INTRA.VDW.0>
264.876

>  <SCORE.INTRA.norm>
-11.7893

>  <SCORE.RESTR>
0

>  <SCORE.RESTR.CAVITY>
0

>  <SCORE.RESTR.norm>
0

>  <SCORE.SYSTEM>
-2.63525

>  <SCORE.SYSTEM.CONST>
0

>  <SCORE.SYSTEM.DIHEDRAL>
3.51465

>  <SCORE.SYSTEM.POLAR>
-3.92788

>  <SCORE.SYSTEM.REPUL>
0.0396056

>  <SCORE.SYSTEM.VDW>
8.76418

>  <SCORE.SYSTEM.norm>
-0.114576

>  <SCORE.heavy>
23

>  <SCORE.norm>
-12.4532

$$$$
