F2200-0525
  rDOCK(R)          3D
libRbt.so/2013.1/901 2013/11/27
 28 31  0  0  0  0  0  0  0  0999 V2000
  -23.7502   17.4867  -17.9347 O   0  0  0  0  0  0
  -23.0151   18.6696  -17.6300 C   0  0  0  0  0  0
  -22.8581   18.7042  -16.1583 C   0  0  0  0  0  0
  -23.7265   19.3144  -15.2735 C   0  0  0  0  0  0
  -23.2946   19.1983  -14.0126 N   0  0  0  0  0  0
  -22.2149   18.4581  -14.0666 C   0  0  0  0  0  0
  -21.7915   17.7858  -12.5295 S   0  0  0  0  0  0
  -20.9287   19.1159  -11.8078 C   0  0  0  0  0  0
  -21.5928   20.6949  -11.7142 C   0  0  0  0  0  0
  -23.4470   21.4133  -12.0355 C   0  0  0  0  0  0
  -25.2606   20.8366  -11.9772 Cl  0  0  0  0  0  0
  -23.6701   23.1988  -12.2967 C   0  0  0  0  0  0
  -22.2243   24.2169  -12.3185 C   0  0  0  0  0  0
  -22.4066   25.9336  -12.2437 Cl  0  0  0  0  0  0
  -20.5811   23.5835  -12.0860 C   0  0  0  0  0  0
  -20.2224   21.8881  -11.7693 C   0  0  0  0  0  0
  -21.8030   18.1571  -15.3772 N   0  0  0  0  0  0
  -20.4982   17.6012  -15.9822 C   0  0  0  0  0  0
  -19.4422   18.5117  -16.7502 C   0  0  0  0  0  0
  -18.1057   17.4380  -17.2370 C   0  0  0  0  0  0
  -16.2197   18.0629  -17.0698 C   0  0  0  0  0  0
  -15.8852   19.6910  -16.5554 C   0  0  0  0  0  0
  -14.7164   20.1105  -17.1580 O   0  0  0  0  0  0
  -14.3116   18.9515  -17.9466 C   0  0  0  0  0  0
  -14.9799   17.6942  -17.6481 O   0  0  0  0  0  0
  -17.2324   20.7355  -16.1701 C   0  0  0  0  0  0
  -18.9670   20.2033  -16.3311 C   0  0  0  0  0  0
  -23.8959   17.4587  -18.8928 H   0  0  0  0  0  0
  1  2  1  0  0  0
  1 28  1  0  0  0
  2  3  1  0  0  0
  3  4  2  0  0  0
  3 17  1  0  0  0
  4  5  1  0  0  0
  5  6  2  0  0  0
  6  7  1  0  0  0
  6 17  1  0  0  0
  7  8  1  0  0  0
  8  9  1  0  0  0
  9 10  2  0  0  0
  9 16  1  0  0  0
 10 11  1  0  0  0
 10 12  1  0  0  0
 12 13  2  0  0  0
 13 14  1  0  0  0
 13 15  1  0  0  0
 15 16  2  0  0  0
 17 18  1  0  0  0
 18 19  1  0  0  0
 19 20  2  0  0  0
 19 27  1  0  0  0
 20 21  1  0  0  0
 21 22  2  0  0  0
 21 25  1  0  0  0
 22 23  1  0  0  0
 22 26  1  0  0  0
 23 24  1  0  0  0
 24 25  1  0  0  0
 26 27  2  0  0  0
M  END
>  <CHROM.0>
-60.39921569,-69.72969713,-8.65378063,63.90058343,168.60618574,-179.84133825
-39.40141982,-159.35014528

>  <CHROM.1>
177.85618217,-90.95342805,-82.74809462,52.37251021,11.66212762,65.27058914
179.13947097,-20.85400759,20.12882170,-14.50960004,0.68432405,-0.32646099
-2.59983232

>  <Name>
F2200-0525

>  <RI>
3.89717e+07

>  <Rbt.Current_Directory>
/home/adria/Escritorio/rDock_CMTR_LC/2pxcA_model/inputs_sah

>  <Rbt.Executable>
rbdock ($Id: //depot/dev/client3/rdock/2013.1/src/exe/rbdock.cxx#4 $)

>  <Rbt.Library>
libRbt.so (2013.1, Build901 2013/11/27)

>  <Rbt.Parameter_File>
/home/adria/Escritorio/rDock_2013.1_src/data/scripts/dock.prm

>  <Rbt.Receptor>
sah_rdock.prm

>  <SCORE>
-318.863

>  <SCORE.INTER>
-15.0405

>  <SCORE.INTER.CONST>
1

>  <SCORE.INTER.POLAR>
-0.8

>  <SCORE.INTER.REPUL>
0

>  <SCORE.INTER.ROT>
6

>  <SCORE.INTER.VDW>
-23.7205

>  <SCORE.INTER.norm>
-0.557055

>  <SCORE.INTRA>
-301.417

>  <SCORE.INTRA.DIHEDRAL>
4.43923

>  <SCORE.INTRA.DIHEDRAL.0>
5.07698

>  <SCORE.INTRA.POLAR>
0

>  <SCORE.INTRA.POLAR.0>
0

>  <SCORE.INTRA.REPUL>
0

>  <SCORE.INTRA.REPUL.0>
0

>  <SCORE.INTRA.VDW>
-303.637

>  <SCORE.INTRA.VDW.0>
300.544

>  <SCORE.INTRA.norm>
-11.1636

>  <SCORE.RESTR>
0

>  <SCORE.RESTR.CAVITY>
0

>  <SCORE.RESTR.norm>
0

>  <SCORE.SYSTEM>
-2.40564

>  <SCORE.SYSTEM.CONST>
0

>  <SCORE.SYSTEM.DIHEDRAL>
6.11963

>  <SCORE.SYSTEM.POLAR>
-4.41962

>  <SCORE.SYSTEM.REPUL>
0.0321803

>  <SCORE.SYSTEM.VDW>
9.40035

>  <SCORE.SYSTEM.norm>
-0.0890976

>  <SCORE.heavy>
27

>  <SCORE.norm>
-11.8097

$$$$
F2200-0525
  rDOCK(R)          3D
libRbt.so/2013.1/901 2013/11/27
 28 31  0  0  0  0  0  0  0  0999 V2000
  -14.9945   12.0168  -14.5257 O   0  0  0  0  0  0
  -15.9144   11.5291  -15.4995 C   0  0  0  0  0  0
  -17.0085   12.5229  -15.5847 C   0  0  0  0  0  0
  -18.2385   12.4163  -14.9645 C   0  0  0  0  0  0
  -19.0217   13.4604  -15.2585 N   0  0  0  0  0  0
  -18.2897   14.2688  -15.9846 C   0  0  0  0  0  0
  -18.9346   15.8731  -16.0492 S   0  0  0  0  0  0
  -19.3297   16.1435  -14.3743 C   0  0  0  0  0  0
  -19.7344   17.6967  -13.7684 C   0  0  0  0  0  0
  -21.3521   18.3995  -12.7956 C   0  0  0  0  0  0
  -22.7418   17.7829  -11.6494 Cl  0  0  0  0  0  0
  -21.6312   20.1948  -12.7268 C   0  0  0  0  0  0
  -20.4895   21.2411  -13.5808 C   0  0  0  0  0  0
  -20.5275   22.9428  -13.2831 Cl  0  0  0  0  0  0
  -19.0886   20.6254  -14.4831 C   0  0  0  0  0  0
  -18.6664   18.9184  -14.5878 C   0  0  0  0  0  0
  -17.0297   13.7410  -16.3187 N   0  0  0  0  0  0
  -15.9511   14.1306  -17.3495 C   0  0  0  0  0  0
  -15.8749   15.5717  -18.0214 C   0  0  0  0  0  0
  -14.4094   16.3549  -17.3771 C   0  0  0  0  0  0
  -14.4564   18.2822  -16.8685 C   0  0  0  0  0  0
  -15.8912   19.2232  -17.1571 C   0  0  0  0  0  0
  -15.5171   20.5271  -17.4122 O   0  0  0  0  0  0
  -14.0627   20.4857  -17.3029 C   0  0  0  0  0  0
  -13.4889   19.3006  -16.6842 O   0  0  0  0  0  0
  -17.2764   18.4315  -17.8703 C   0  0  0  0  0  0
  -17.2605   16.6784  -18.3650 C   0  0  0  0  0  0
  -14.6861   12.8906  -14.8109 H   0  0  0  0  0  0
  1  2  1  0  0  0
  1 28  1  0  0  0
  2  3  1  0  0  0
  3  4  2  0  0  0
  3 17  1  0  0  0
  4  5  1  0  0  0
  5  6  2  0  0  0
  6  7  1  0  0  0
  6 17  1  0  0  0
  7  8  1  0  0  0
  8  9  1  0  0  0
  9 10  2  0  0  0
  9 16  1  0  0  0
 10 11  1  0  0  0
 10 12  1  0  0  0
 12 13  2  0  0  0
 13 14  1  0  0  0
 13 15  1  0  0  0
 15 16  2  0  0  0
 17 18  1  0  0  0
 18 19  1  0  0  0
 19 20  2  0  0  0
 19 27  1  0  0  0
 20 21  1  0  0  0
 21 22  2  0  0  0
 21 25  1  0  0  0
 22 23  1  0  0  0
 22 26  1  0  0  0
 23 24  1  0  0  0
 24 25  1  0  0  0
 26 27  2  0  0  0
M  END
>  <CHROM.0>
-172.65950508,-68.84465924,-47.52100079,56.05186962,-32.16981252,-62.39343829
-156.44818420,-164.01698709

>  <CHROM.1>
-58.42843649,-99.44790076,45.23691634,167.87681182,123.05784586,-171.57339870
111.10800031,-18.06398102,17.26217413,-15.26569075,0.82347792,-0.60813446
3.12637602

>  <Name>
F2200-0525

>  <RI>
3.89717e+07

>  <Rbt.Current_Directory>
/home/adria/Escritorio/rDock_CMTR_LC/2pxcA_model/inputs_sah

>  <Rbt.Executable>
rbdock ($Id: //depot/dev/client3/rdock/2013.1/src/exe/rbdock.cxx#4 $)

>  <Rbt.Library>
libRbt.so (2013.1, Build901 2013/11/27)

>  <Rbt.Parameter_File>
/home/adria/Escritorio/rDock_2013.1_src/data/scripts/dock.prm

>  <Rbt.Receptor>
sah_rdock.prm

>  <SCORE>
-324.885

>  <SCORE.INTER>
-16.5892

>  <SCORE.INTER.CONST>
1

>  <SCORE.INTER.POLAR>
-1.3005

>  <SCORE.INTER.REPUL>
0

>  <SCORE.INTER.ROT>
6

>  <SCORE.INTER.VDW>
-23.5675

>  <SCORE.INTER.norm>
-0.614415

>  <SCORE.INTRA>
-301.218

>  <SCORE.INTRA.DIHEDRAL>
2.29994

>  <SCORE.INTRA.DIHEDRAL.0>
5.07698

>  <SCORE.INTRA.POLAR>
0

>  <SCORE.INTRA.POLAR.0>
0

>  <SCORE.INTRA.REPUL>
0

>  <SCORE.INTRA.REPUL.0>
0

>  <SCORE.INTRA.VDW>
-302.368

>  <SCORE.INTRA.VDW.0>
300.544

>  <SCORE.INTRA.norm>
-11.1562

>  <SCORE.RESTR>
0

>  <SCORE.RESTR.CAVITY>
0

>  <SCORE.RESTR.norm>
0

>  <SCORE.SYSTEM>
-7.07825

>  <SCORE.SYSTEM.CONST>
0

>  <SCORE.SYSTEM.DIHEDRAL>
5.86282

>  <SCORE.SYSTEM.POLAR>
-3.96271

>  <SCORE.SYSTEM.REPUL>
0.0302869

>  <SCORE.SYSTEM.VDW>
3.31212

>  <SCORE.SYSTEM.norm>
-0.262157

>  <SCORE.heavy>
27

>  <SCORE.norm>
-12.0328

$$$$
F2200-0525
  rDOCK(R)          3D
libRbt.so/2013.1/901 2013/11/27
 28 31  0  0  0  0  0  0  0  0999 V2000
  -25.5127   18.6275  -10.8610 O   0  0  0  0  0  0
  -25.3702   18.2214  -12.2201 C   0  0  0  0  0  0
  -23.9165   18.1403  -12.4884 C   0  0  0  0  0  0
  -23.2290   16.9947  -12.8406 C   0  0  0  0  0  0
  -21.9216   17.2392  -12.9853 N   0  0  0  0  0  0
  -21.7736   18.5296  -12.8138 C   0  0  0  0  0  0
  -20.2703   19.1159  -13.4385 S   0  0  0  0  0  0
  -20.1370   18.1950  -14.9111 C   0  0  0  0  0  0
  -18.7945   18.3478  -15.9681 C   0  0  0  0  0  0
  -17.7922   17.0147  -17.0975 C   0  0  0  0  0  0
  -18.0763   15.3526  -17.9818 Cl  0  0  0  0  0  0
  -16.1405   17.4492  -17.7210 C   0  0  0  0  0  0
  -15.4639   19.0126  -17.2462 C   0  0  0  0  0  0
  -14.0569   19.5993  -18.0601 Cl  0  0  0  0  0  0
  -16.3210   20.1725  -16.2091 C   0  0  0  0  0  0
  -17.9451   19.9076  -15.5803 C   0  0  0  0  0  0
  -22.9533   19.1843  -12.4167 N   0  0  0  0  0  0
  -23.2507   20.5751  -11.8210 C   0  0  0  0  0  0
  -22.5770   21.9119  -12.3625 C   0  0  0  0  0  0
  -21.4733   22.4780  -11.0829 C   0  0  0  0  0  0
  -21.3708   24.4214  -10.6493 C   0  0  0  0  0  0
  -22.2732   25.5719  -11.5924 C   0  0  0  0  0  0
  -21.5707   26.7595  -11.6258 O   0  0  0  0  0  0
  -20.3862   26.4706  -10.8243 C   0  0  0  0  0  0
  -20.4269   25.2643  -10.0121 O   0  0  0  0  0  0
  -23.2770   24.9767  -12.8933 C   0  0  0  0  0  0
  -23.3780   23.2109  -13.3288 C   0  0  0  0  0  0
  -25.0927   17.9584  -10.2990 H   0  0  0  0  0  0
  1  2  1  0  0  0
  1 28  1  0  0  0
  2  3  1  0  0  0
  3  4  2  0  0  0
  3 17  1  0  0  0
  4  5  1  0  0  0
  5  6  2  0  0  0
  6  7  1  0  0  0
  6 17  1  0  0  0
  7  8  1  0  0  0
  8  9  1  0  0  0
  9 10  2  0  0  0
  9 16  1  0  0  0
 10 11  1  0  0  0
 10 12  1  0  0  0
 12 13  2  0  0  0
 13 14  1  0  0  0
 13 15  1  0  0  0
 15 16  2  0  0  0
 17 18  1  0  0  0
 18 19  1  0  0  0
 19 20  2  0  0  0
 19 27  1  0  0  0
 20 21  1  0  0  0
 21 22  2  0  0  0
 21 25  1  0  0  0
 22 23  1  0  0  0
 22 26  1  0  0  0
 23 24  1  0  0  0
 24 25  1  0  0  0
 26 27  2  0  0  0
M  END
>  <CHROM.0>
178.08522583,66.64564577,-42.02676953,64.67787427,-28.58401368,56.31974829
-156.49372293,-45.15726488

>  <CHROM.1>
-60.52450711,117.70121822,39.71123132,-179.19964362,143.54116986,-146.82559030
-111.10524124,-20.28858468,20.14767678,-13.97125334,2.35038725,0.54048364
0.36509896

>  <Name>
F2200-0525

>  <RI>
3.89717e+07

>  <Rbt.Current_Directory>
/home/adria/Escritorio/rDock_CMTR_LC/2pxcA_model/inputs_sah

>  <Rbt.Executable>
rbdock ($Id: //depot/dev/client3/rdock/2013.1/src/exe/rbdock.cxx#4 $)

>  <Rbt.Library>
libRbt.so (2013.1, Build901 2013/11/27)

>  <Rbt.Parameter_File>
/home/adria/Escritorio/rDock_2013.1_src/data/scripts/dock.prm

>  <Rbt.Receptor>
sah_rdock.prm

>  <SCORE>
-320.558

>  <SCORE.INTER>
-14.5893

>  <SCORE.INTER.CONST>
1

>  <SCORE.INTER.POLAR>
-1.77844

>  <SCORE.INTER.REPUL>
0.00506254

>  <SCORE.INTER.ROT>
6

>  <SCORE.INTER.VDW>
-19.9679

>  <SCORE.INTER.norm>
-0.540345

>  <SCORE.INTRA>
-301.358

>  <SCORE.INTRA.DIHEDRAL>
0.829505

>  <SCORE.INTRA.DIHEDRAL.0>
5.07698

>  <SCORE.INTRA.POLAR>
0

>  <SCORE.INTRA.POLAR.0>
0

>  <SCORE.INTRA.REPUL>
0

>  <SCORE.INTRA.REPUL.0>
0

>  <SCORE.INTRA.VDW>
-301.772

>  <SCORE.INTRA.VDW.0>
300.544

>  <SCORE.INTRA.norm>
-11.1614

>  <SCORE.RESTR>
0

>  <SCORE.RESTR.CAVITY>
0

>  <SCORE.RESTR.norm>
0

>  <SCORE.SYSTEM>
-4.61104

>  <SCORE.SYSTEM.CONST>
0

>  <SCORE.SYSTEM.DIHEDRAL>
8.59172

>  <SCORE.SYSTEM.POLAR>
-3.39234

>  <SCORE.SYSTEM.REPUL>
0.0241126

>  <SCORE.SYSTEM.VDW>
2.50648

>  <SCORE.SYSTEM.norm>
-0.170779

>  <SCORE.heavy>
27

>  <SCORE.norm>
-11.8725

$$$$
F2200-0525
  rDOCK(R)          3D
libRbt.so/2013.1/901 2013/11/27
 28 31  0  0  0  0  0  0  0  0999 V2000
  -19.0590   21.7822  -16.0410 O   0  0  0  0  0  0
  -18.1150   20.8059  -15.6073 C   0  0  0  0  0  0
  -18.7264   20.1077  -14.4539 C   0  0  0  0  0  0
  -18.3679   20.2797  -13.1307 C   0  0  0  0  0  0
  -19.0839   19.4849  -12.3272 N   0  0  0  0  0  0
  -19.9460   18.8715  -13.0997 C   0  0  0  0  0  0
  -21.2668   18.1905  -12.2134 S   0  0  0  0  0  0
  -22.6164   19.0341  -12.9215 C   0  0  0  0  0  0
  -22.9099   20.6991  -12.6307 C   0  0  0  0  0  0
  -24.4375   21.9179  -13.1189 C   0  0  0  0  0  0
  -26.3025   21.8342  -13.4932 Cl  0  0  0  0  0  0
  -24.1884   23.7177  -13.0523 C   0  0  0  0  0  0
  -22.5806   24.3130  -12.6185 C   0  0  0  0  0  0
  -22.3815   25.9860  -12.2345 Cl  0  0  0  0  0  0
  -21.2146   23.2438  -12.2355 C   0  0  0  0  0  0
  -21.3269   21.4860  -12.2070 C   0  0  0  0  0  0
  -19.7579   19.1285  -14.4695 N   0  0  0  0  0  0
  -20.2767   18.4617  -15.7594 C   0  0  0  0  0  0
  -19.3147   17.7904  -16.8353 C   0  0  0  0  0  0
  -18.9369   16.1575  -16.2293 C   0  0  0  0  0  0
  -17.0811   15.4457  -16.3862 C   0  0  0  0  0  0
  -15.8612   16.3716  -17.2121 C   0  0  0  0  0  0
  -14.9719   15.4974  -17.8035 O   0  0  0  0  0  0
  -15.4931   14.1864  -17.4310 C   0  0  0  0  0  0
  -16.4901   14.1581  -16.3719 O   0  0  0  0  0  0
  -16.3006   17.9319  -17.8652 C   0  0  0  0  0  0
  -17.9907   18.6029  -17.7571 C   0  0  0  0  0  0
  -19.2125   22.4010  -15.3106 H   0  0  0  0  0  0
  1  2  1  0  0  0
  1 28  1  0  0  0
  2  3  1  0  0  0
  3  4  2  0  0  0
  3 17  1  0  0  0
  4  5  1  0  0  0
  5  6  2  0  0  0
  6  7  1  0  0  0
  6 17  1  0  0  0
  7  8  1  0  0  0
  8  9  1  0  0  0
  9 10  2  0  0  0
  9 16  1  0  0  0
 10 11  1  0  0  0
 10 12  1  0  0  0
 12 13  2  0  0  0
 13 14  1  0  0  0
 13 15  1  0  0  0
 15 16  2  0  0  0
 17 18  1  0  0  0
 18 19  1  0  0  0
 19 20  2  0  0  0
 19 27  1  0  0  0
 20 21  1  0  0  0
 21 22  2  0  0  0
 21 25  1  0  0  0
 22 23  1  0  0  0
 22 26  1  0  0  0
 23 24  1  0  0  0
 24 25  1  0  0  0
 26 27  2  0  0  0
M  END
>  <CHROM.0>
-57.58871832,65.15390931,-8.36574868,62.03512430,-30.59862060,-59.61236035
81.27912042,-166.43146520

>  <CHROM.1>
61.01535784,-105.74061744,119.69435099,-71.20888469,-172.83239112,51.00293346
81.81413286,-20.28166784,19.82165111,-14.39902836,-0.80051194,0.40905841
0.15567022

>  <Name>
F2200-0525

>  <RI>
3.89717e+07

>  <Rbt.Current_Directory>
/home/adria/Escritorio/rDock_CMTR_LC/2pxcA_model/inputs_sah

>  <Rbt.Executable>
rbdock ($Id: //depot/dev/client3/rdock/2013.1/src/exe/rbdock.cxx#4 $)

>  <Rbt.Library>
libRbt.so (2013.1, Build901 2013/11/27)

>  <Rbt.Parameter_File>
/home/adria/Escritorio/rDock_2013.1_src/data/scripts/dock.prm

>  <Rbt.Receptor>
sah_rdock.prm

>  <SCORE>
-321.067

>  <SCORE.INTER>
-12.0613

>  <SCORE.INTER.CONST>
1

>  <SCORE.INTER.POLAR>
0

>  <SCORE.INTER.REPUL>
0

>  <SCORE.INTER.ROT>
6

>  <SCORE.INTER.VDW>
-23.4613

>  <SCORE.INTER.norm>
-0.446714

>  <SCORE.INTRA>
-302.123

>  <SCORE.INTRA.DIHEDRAL>
2.67713

>  <SCORE.INTRA.DIHEDRAL.0>
5.07698

>  <SCORE.INTRA.POLAR>
0

>  <SCORE.INTRA.POLAR.0>
0

>  <SCORE.INTRA.REPUL>
0

>  <SCORE.INTRA.REPUL.0>
0

>  <SCORE.INTRA.VDW>
-303.461

>  <SCORE.INTRA.VDW.0>
300.544

>  <SCORE.INTRA.norm>
-11.1897

>  <SCORE.RESTR>
0

>  <SCORE.RESTR.CAVITY>
0

>  <SCORE.RESTR.norm>
0

>  <SCORE.SYSTEM>
-6.88244

>  <SCORE.SYSTEM.CONST>
0

>  <SCORE.SYSTEM.DIHEDRAL>
8.36746

>  <SCORE.SYSTEM.POLAR>
-4.21917

>  <SCORE.SYSTEM.VDW>
3.27901

>  <SCORE.SYSTEM.norm>
-0.254905

>  <SCORE.heavy>
27

>  <SCORE.norm>
-11.8914

$$$$
F2200-0525
  rDOCK(R)          3D
libRbt.so/2013.1/901 2013/11/27
 28 31  0  0  0  0  0  0  0  0999 V2000
  -24.1359   21.4101   -8.1103 O   0  0  0  0  0  0
  -24.0413   21.5461   -9.5263 C   0  0  0  0  0  0
  -23.0096   20.5846   -9.9768 C   0  0  0  0  0  0
  -22.3523   19.6769   -9.1687 C   0  0  0  0  0  0
  -21.4556   18.9687   -9.8647 N   0  0  0  0  0  0
  -21.5849   19.3475  -11.1122 C   0  0  0  0  0  0
  -20.8843   18.2229  -12.2250 S   0  0  0  0  0  0
  -20.6002   19.2484  -13.6041 C   0  0  0  0  0  0
  -19.3789   18.9100  -14.7605 C   0  0  0  0  0  0
  -18.4124   17.2159  -15.2639 C   0  0  0  0  0  0
  -18.6798   15.3308  -15.2535 Cl  0  0  0  0  0  0
  -16.8589   17.3300  -16.2017 C   0  0  0  0  0  0
  -16.2356   18.9426  -16.5735 C   0  0  0  0  0  0
  -14.9531   19.1019  -17.7206 Cl  0  0  0  0  0  0
  -17.0564   20.4418  -16.0892 C   0  0  0  0  0  0
  -18.5923   20.4810  -15.2273 C   0  0  0  0  0  0
  -22.4798   20.4184  -11.2862 N   0  0  0  0  0  0
  -22.7587   21.3956  -12.4459 C   0  0  0  0  0  0
  -21.9469   22.7492  -12.6528 C   0  0  0  0  0  0
  -20.5716   22.6940  -11.5206 C   0  0  0  0  0  0
  -20.0509   24.3327  -10.5113 C   0  0  0  0  0  0
  -20.8661   25.8390  -10.8181 C   0  0  0  0  0  0
  -19.9736   26.8713  -10.6109 O   0  0  0  0  0  0
  -18.7503   26.1819  -10.2143 C   0  0  0  0  0  0
  -18.8815   24.7800   -9.8483 O   0  0  0  0  0  0
  -22.1530   25.8632  -12.0003 C   0  0  0  0  0  0
  -22.6402   24.3897  -12.9541 C   0  0  0  0  0  0
  -24.4685   20.5211   -7.9127 H   0  0  0  0  0  0
  1  2  1  0  0  0
  1 28  1  0  0  0
  2  3  1  0  0  0
  3  4  2  0  0  0
  3 17  1  0  0  0
  4  5  1  0  0  0
  5  6  2  0  0  0
  6  7  1  0  0  0
  6 17  1  0  0  0
  7  8  1  0  0  0
  8  9  1  0  0  0
  9 10  2  0  0  0
  9 16  1  0  0  0
 10 11  1  0  0  0
 10 12  1  0  0  0
 12 13  2  0  0  0
 13 14  1  0  0  0
 13 15  1  0  0  0
 15 16  2  0  0  0
 17 18  1  0  0  0
 18 19  1  0  0  0
 19 20  2  0  0  0
 19 27  1  0  0  0
 20 21  1  0  0  0
 21 22  2  0  0  0
 21 25  1  0  0  0
 22 23  1  0  0  0
 22 26  1  0  0  0
 23 24  1  0  0  0
 24 25  1  0  0  0
 26 27  2  0  0  0
M  END
>  <CHROM.0>
179.62886113,-167.08193228,48.37409534,62.38286382,-29.40121452,-58.66296365
30.42420423,-164.17045539

>  <CHROM.1>
-65.04052419,4.16683963,-157.00906101,154.20387096,21.55210733,82.63547079
9.99624426,-20.04049846,20.71046648,-12.75318504,2.28655535,0.73576201,0.26309956

>  <Name>
F2200-0525

>  <RI>
3.89717e+07

>  <Rbt.Current_Directory>
/home/adria/Escritorio/rDock_CMTR_LC/2pxcA_model/inputs_sah

>  <Rbt.Executable>
rbdock ($Id: //depot/dev/client3/rdock/2013.1/src/exe/rbdock.cxx#4 $)

>  <Rbt.Library>
libRbt.so (2013.1, Build901 2013/11/27)

>  <Rbt.Parameter_File>
/home/adria/Escritorio/rDock_2013.1_src/data/scripts/dock.prm

>  <Rbt.Receptor>
sah_rdock.prm

>  <SCORE>
-328.468

>  <SCORE.INTER>
-24.7171

>  <SCORE.INTER.CONST>
1

>  <SCORE.INTER.POLAR>
-2.23195

>  <SCORE.INTER.REPUL>
0.113859

>  <SCORE.INTER.ROT>
6

>  <SCORE.INTER.VDW>
-29.0978

>  <SCORE.INTER.norm>
-0.915448

>  <SCORE.INTRA>
-301.535

>  <SCORE.INTRA.DIHEDRAL>
0.889641

>  <SCORE.INTRA.DIHEDRAL.0>
5.07698

>  <SCORE.INTRA.POLAR>
0

>  <SCORE.INTRA.POLAR.0>
0

>  <SCORE.INTRA.REPUL>
0

>  <SCORE.INTRA.REPUL.0>
0

>  <SCORE.INTRA.VDW>
-301.98

>  <SCORE.INTRA.VDW.0>
300.544

>  <SCORE.INTRA.norm>
-11.168

>  <SCORE.RESTR>
0

>  <SCORE.RESTR.CAVITY>
0

>  <SCORE.RESTR.norm>
0

>  <SCORE.SYSTEM>
-2.21577

>  <SCORE.SYSTEM.CONST>
0

>  <SCORE.SYSTEM.DIHEDRAL>
6.98062

>  <SCORE.SYSTEM.POLAR>
-2.64753

>  <SCORE.SYSTEM.VDW>
3.29552

>  <SCORE.SYSTEM.norm>
-0.0820656

>  <SCORE.heavy>
27

>  <SCORE.norm>
-12.1655

$$$$
F2200-0525
  rDOCK(R)          3D
libRbt.so/2013.1/901 2013/11/27
 28 31  0  0  0  0  0  0  0  0999 V2000
  -22.1795   27.1928   -8.6848 O   0  0  0  0  0  0
  -21.9192   25.7912   -8.6751 C   0  0  0  0  0  0
  -21.9304   25.3479  -10.0876 C   0  0  0  0  0  0
  -21.2729   25.9735  -11.1294 C   0  0  0  0  0  0
  -21.5014   25.3499  -12.2909 N   0  0  0  0  0  0
  -22.2219   24.2951  -11.9997 C   0  0  0  0  0  0
  -22.2054   23.1096  -13.2599 S   0  0  0  0  0  0
  -20.5106   22.7125  -13.3248 C   0  0  0  0  0  0
  -19.9430   21.2221  -13.9572 C   0  0  0  0  0  0
  -19.9356   19.3463  -13.2235 C   0  0  0  0  0  0
  -20.9142   18.2565  -12.0068 Cl  0  0  0  0  0  0
  -18.8337   18.1088  -13.9718 C   0  0  0  0  0  0
  -17.7664   18.6370  -15.2793 C   0  0  0  0  0  0
  -16.9449   17.4459  -16.2239 Cl  0  0  0  0  0  0
  -17.7313   20.3018  -15.8980 C   0  0  0  0  0  0
  -18.7801   21.5873  -15.3059 C   0  0  0  0  0  0
  -22.6180   24.2379  -10.6515 N   0  0  0  0  0  0
  -23.6701   23.4115   -9.8848 C   0  0  0  0  0  0
  -24.7121   22.4499  -10.6082 C   0  0  0  0  0  0
  -23.8926   20.8816  -10.8203 C   0  0  0  0  0  0
  -24.1103   19.8709  -12.5251 C   0  0  0  0  0  0
  -25.1856   20.4650  -13.7573 C   0  0  0  0  0  0
  -25.7123   19.3859  -14.4379 O   0  0  0  0  0  0
  -25.0879   18.2405  -13.7843 C   0  0  0  0  0  0
  -23.9476   18.5217  -12.9256 O   0  0  0  0  0  0
  -26.0340   21.9654  -13.4688 C   0  0  0  0  0  0
  -25.8735   22.9031  -11.9154 C   0  0  0  0  0  0
  -23.0742   27.3326   -9.0311 H   0  0  0  0  0  0
  1  2  1  0  0  0
  1 28  1  0  0  0
  2  3  1  0  0  0
  3  4  2  0  0  0
  3 17  1  0  0  0
  4  5  1  0  0  0
  5  6  2  0  0  0
  6  7  1  0  0  0
  6 17  1  0  0  0
  7  8  1  0  0  0
  8  9  1  0  0  0
  9 10  2  0  0  0
  9 16  1  0  0  0
 10 11  1  0  0  0
 10 12  1  0  0  0
 12 13  2  0  0  0
 13 14  1  0  0  0
 13 15  1  0  0  0
 15 16  2  0  0  0
 17 18  1  0  0  0
 18 19  1  0  0  0
 19 20  2  0  0  0
 19 27  1  0  0  0
 20 21  1  0  0  0
 21 22  2  0  0  0
 21 25  1  0  0  0
 22 23  1  0  0  0
 22 26  1  0  0  0
 23 24  1  0  0  0
 24 25  1  0  0  0
 26 27  2  0  0  0
M  END
>  <CHROM.0>
-59.64441877,66.89478980,77.39113324,-59.11059297,-30.33932380,-176.13990279
83.65110845,-160.02872038

>  <CHROM.1>
64.33299588,47.25141426,61.38429754,157.03244460,-75.27449171,162.64938692
85.98978478,-21.77991924,21.43017027,-12.74826701,-2.10367937,-0.23284928
-2.66340413

>  <Name>
F2200-0525

>  <RI>
3.89717e+07

>  <Rbt.Current_Directory>
/home/adria/Escritorio/rDock_CMTR_LC/2pxcA_model/inputs_sah

>  <Rbt.Executable>
rbdock ($Id: //depot/dev/client3/rdock/2013.1/src/exe/rbdock.cxx#4 $)

>  <Rbt.Library>
libRbt.so (2013.1, Build901 2013/11/27)

>  <Rbt.Parameter_File>
/home/adria/Escritorio/rDock_2013.1_src/data/scripts/dock.prm

>  <Rbt.Receptor>
sah_rdock.prm

>  <SCORE>
-321.068

>  <SCORE.INTER>
-12.8572

>  <SCORE.INTER.CONST>
1

>  <SCORE.INTER.POLAR>
-0.894427

>  <SCORE.INTER.REPUL>
0.00519457

>  <SCORE.INTER.ROT>
6

>  <SCORE.INTER.VDW>
-21.2421

>  <SCORE.INTER.norm>
-0.476192

>  <SCORE.INTRA>
-301.262

>  <SCORE.INTRA.DIHEDRAL>
5.20159

>  <SCORE.INTRA.DIHEDRAL.0>
5.07698

>  <SCORE.INTRA.POLAR>
0

>  <SCORE.INTRA.POLAR.0>
0

>  <SCORE.INTRA.REPUL>
0

>  <SCORE.INTRA.REPUL.0>
0

>  <SCORE.INTRA.VDW>
-303.863

>  <SCORE.INTRA.VDW.0>
300.544

>  <SCORE.INTRA.norm>
-11.1579

>  <SCORE.RESTR>
0

>  <SCORE.RESTR.CAVITY>
0

>  <SCORE.RESTR.norm>
0

>  <SCORE.SYSTEM>
-6.94893

>  <SCORE.SYSTEM.CONST>
0

>  <SCORE.SYSTEM.DIHEDRAL>
6.27825

>  <SCORE.SYSTEM.POLAR>
-3.76021

>  <SCORE.SYSTEM.VDW>
2.69666

>  <SCORE.SYSTEM.norm>
-0.257368

>  <SCORE.heavy>
27

>  <SCORE.norm>
-11.8914

$$$$
F2200-0525
  rDOCK(R)          3D
libRbt.so/2013.1/901 2013/11/27
 28 31  0  0  0  0  0  0  0  0999 V2000
  -26.4416   20.9028  -14.2613 O   0  0  0  0  0  0
  -26.2941   20.7407  -12.8526 C   0  0  0  0  0  0
  -25.4773   19.5228  -12.6490 C   0  0  0  0  0  0
  -25.9352   18.3285  -12.1267 C   0  0  0  0  0  0
  -24.9497   17.4277  -12.0402 N   0  0  0  0  0  0
  -23.8944   17.9938  -12.5714 C   0  0  0  0  0  0
  -22.6718   16.8485  -13.0042 S   0  0  0  0  0  0
  -21.2252   17.7502  -12.6454 C   0  0  0  0  0  0
  -20.0281   18.0705  -13.8318 C   0  0  0  0  0  0
  -19.5296   19.7368  -14.8478 C   0  0  0  0  0  0
  -19.6010   21.6303  -14.6609 Cl  0  0  0  0  0  0
  -18.5250   19.5854  -16.3556 C   0  0  0  0  0  0
  -18.0851   17.9595  -16.8946 C   0  0  0  0  0  0
  -16.8816   17.7799  -18.1215 Cl  0  0  0  0  0  0
  -18.5635   16.4824  -16.0315 C   0  0  0  0  0  0
  -19.4876   16.4822  -14.5317 C   0  0  0  0  0  0
  -24.0919   19.3430  -12.9159 N   0  0  0  0  0  0
  -23.1393   20.5001  -13.2783 C   0  0  0  0  0  0
  -22.9936   21.8132  -12.3903 C   0  0  0  0  0  0
  -24.0815   23.0313  -13.1036 C   0  0  0  0  0  0
  -23.4805   24.9256  -13.2644 C   0  0  0  0  0  0
  -21.9429   25.4089  -12.6090 C   0  0  0  0  0  0
  -22.0354   26.7222  -12.1947 O   0  0  0  0  0  0
  -23.4104   27.0816  -12.5255 C   0  0  0  0  0  0
  -24.1241   26.1786  -13.4154 O   0  0  0  0  0  0
  -20.9465   24.1951  -11.8420 C   0  0  0  0  0  0
  -21.4735   22.4610  -11.6605 C   0  0  0  0  0  0
  -26.9330   21.7229  -14.4223 H   0  0  0  0  0  0
  1  2  1  0  0  0
  1 28  1  0  0  0
  2  3  1  0  0  0
  3  4  2  0  0  0
  3 17  1  0  0  0
  4  5  1  0  0  0
  5  6  2  0  0  0
  6  7  1  0  0  0
  6 17  1  0  0  0
  7  8  1  0  0  0
  8  9  1  0  0  0
  9 10  2  0  0  0
  9 16  1  0  0  0
 10 11  1  0  0  0
 10 12  1  0  0  0
 12 13  2  0  0  0
 13 14  1  0  0  0
 13 15  1  0  0  0
 15 16  2  0  0  0
 17 18  1  0  0  0
 18 19  1  0  0  0
 19 20  2  0  0  0
 19 27  1  0  0  0
 20 21  1  0  0  0
 21 22  2  0  0  0
 21 25  1  0  0  0
 22 23  1  0  0  0
 22 26  1  0  0  0
 23 24  1  0  0  0
 24 25  1  0  0  0
 26 27  2  0  0  0
M  END
>  <CHROM.0>
-58.71909472,-75.12550170,111.57550483,67.12956945,168.85063007,56.68352231
-158.57731238,-164.47816413

>  <CHROM.1>
-176.93371347,-110.35026631,-144.23936822,-121.99304165,105.74881958,53.15502355
-95.34538401,-21.88094214,20.50362638,-13.83357525,2.26994952,0.48634594
0.10677614

>  <Name>
F2200-0525

>  <RI>
3.89717e+07

>  <Rbt.Current_Directory>
/home/adria/Escritorio/rDock_CMTR_LC/2pxcA_model/inputs_sah

>  <Rbt.Executable>
rbdock ($Id: //depot/dev/client3/rdock/2013.1/src/exe/rbdock.cxx#4 $)

>  <Rbt.Library>
libRbt.so (2013.1, Build901 2013/11/27)

>  <Rbt.Parameter_File>
/home/adria/Escritorio/rDock_2013.1_src/data/scripts/dock.prm

>  <Rbt.Receptor>
sah_rdock.prm

>  <SCORE>
-318.054

>  <SCORE.INTER>
-13.4198

>  <SCORE.INTER.CONST>
1

>  <SCORE.INTER.POLAR>
-2.40425

>  <SCORE.INTER.REPUL>
0.0141679

>  <SCORE.INTER.ROT>
6

>  <SCORE.INTER.VDW>
-16.7162

>  <SCORE.INTER.norm>
-0.497029

>  <SCORE.INTRA>
-302.039

>  <SCORE.INTRA.DIHEDRAL>
3.06092

>  <SCORE.INTRA.DIHEDRAL.0>
5.07698

>  <SCORE.INTRA.POLAR>
0

>  <SCORE.INTRA.POLAR.0>
0

>  <SCORE.INTRA.REPUL>
0

>  <SCORE.INTRA.REPUL.0>
0

>  <SCORE.INTRA.VDW>
-303.569

>  <SCORE.INTRA.VDW.0>
300.544

>  <SCORE.INTRA.norm>
-11.1866

>  <SCORE.RESTR>
0

>  <SCORE.RESTR.CAVITY>
0

>  <SCORE.RESTR.norm>
0

>  <SCORE.SYSTEM>
-2.59553

>  <SCORE.SYSTEM.CONST>
0

>  <SCORE.SYSTEM.DIHEDRAL>
6.74044

>  <SCORE.SYSTEM.POLAR>
-4.56935

>  <SCORE.SYSTEM.REPUL>
0.0421083

>  <SCORE.SYSTEM.VDW>
9.3595

>  <SCORE.SYSTEM.norm>
-0.0961308

>  <SCORE.heavy>
27

>  <SCORE.norm>
-11.7798

$$$$
F2200-0525
  rDOCK(R)          3D
libRbt.so/2013.1/901 2013/11/27
 28 31  0  0  0  0  0  0  0  0999 V2000
  -23.6114   20.2736  -17.8231 O   0  0  0  0  0  0
  -24.0677   19.3387  -16.8483 C   0  0  0  0  0  0
  -22.8754   18.5938  -16.3843 C   0  0  0  0  0  0
  -22.0332   17.8486  -17.1869 C   0  0  0  0  0  0
  -21.0639   17.2710  -16.4680 N   0  0  0  0  0  0
  -21.2215   17.6976  -15.2393 C   0  0  0  0  0  0
  -19.8062   17.4720  -14.2699 S   0  0  0  0  0  0
  -18.7503   16.6697  -15.3994 C   0  0  0  0  0  0
  -17.4774   17.4910  -16.2047 C   0  0  0  0  0  0
  -15.7394   16.8587  -17.0028 C   0  0  0  0  0  0
  -14.9736   15.2903  -17.7634 Cl  0  0  0  0  0  0
  -14.4341   18.0746  -17.3541 C   0  0  0  0  0  0
  -14.7361   19.7605  -16.9137 C   0  0  0  0  0  0
  -13.6739   20.9861  -17.5101 Cl  0  0  0  0  0  0
  -16.2468   20.3176  -16.1634 C   0  0  0  0  0  0
  -17.6141   19.2620  -15.8178 C   0  0  0  0  0  0
  -22.3803   18.4733  -15.0564 N   0  0  0  0  0  0
  -23.1590   18.9477  -13.8130 C   0  0  0  0  0  0
  -22.8153   20.2943  -13.0367 C   0  0  0  0  0  0
  -24.2761   21.3122  -13.1153 C   0  0  0  0  0  0
  -24.1044   23.2696  -13.4537 C   0  0  0  0  0  0
  -22.5284   23.9989  -13.5609 C   0  0  0  0  0  0
  -22.6119   25.2953  -13.0947 O   0  0  0  0  0  0
  -24.0202   25.4331  -12.7386 C   0  0  0  0  0  0
  -24.9221   24.4061  -13.2371 O   0  0  0  0  0  0
  -21.1234   22.9731  -13.3923 C   0  0  0  0  0  0
  -21.2445   21.1857  -13.0628 C   0  0  0  0  0  0
  -24.3841   20.7283  -18.1921 H   0  0  0  0  0  0
  1  2  1  0  0  0
  1 28  1  0  0  0
  2  3  1  0  0  0
  3  4  2  0  0  0
  3 17  1  0  0  0
  4  5  1  0  0  0
  5  6  2  0  0  0
  6  7  1  0  0  0
  6 17  1  0  0  0
  7  8  1  0  0  0
  8  9  1  0  0  0
  9 10  2  0  0  0
  9 16  1  0  0  0
 10 11  1  0  0  0
 10 12  1  0  0  0
 12 13  2  0  0  0
 13 14  1  0  0  0
 13 15  1  0  0  0
 15 16  2  0  0  0
 17 18  1  0  0  0
 18 19  1  0  0  0
 19 20  2  0  0  0
 19 27  1  0  0  0
 20 21  1  0  0  0
 21 22  2  0  0  0
 21 25  1  0  0  0
 22 23  1  0  0  0
 22 26  1  0  0  0
 23 24  1  0  0  0
 24 25  1  0  0  0
 26 27  2  0  0  0
M  END
>  <CHROM.0>
177.30984902,-166.50477122,73.94740727,64.83198912,-29.63608517,67.09699918
-156.14592259,-159.12016236

>  <CHROM.1>
175.75138318,-58.74374757,-2.34750089,102.43588969,154.76816090,-103.11414642
119.76069274,-19.86085152,19.71971825,-15.45724857,2.56026473,0.22606170
0.28050334

>  <Name>
F2200-0525

>  <RI>
3.89717e+07

>  <Rbt.Current_Directory>
/home/adria/Escritorio/rDock_CMTR_LC/2pxcA_model/inputs_sah

>  <Rbt.Executable>
rbdock ($Id: //depot/dev/client3/rdock/2013.1/src/exe/rbdock.cxx#4 $)

>  <Rbt.Library>
libRbt.so (2013.1, Build901 2013/11/27)

>  <Rbt.Parameter_File>
/home/adria/Escritorio/rDock_2013.1_src/data/scripts/dock.prm

>  <Rbt.Receptor>
sah_rdock.prm

>  <SCORE>
-325.843

>  <SCORE.INTER>
-19.7738

>  <SCORE.INTER.CONST>
1

>  <SCORE.INTER.POLAR>
-1.37031

>  <SCORE.INTER.REPUL>
0.0306972

>  <SCORE.INTER.ROT>
6

>  <SCORE.INTER.VDW>
-26.6683

>  <SCORE.INTER.norm>
-0.732364

>  <SCORE.INTRA>
-299.891

>  <SCORE.INTRA.DIHEDRAL>
1.93401

>  <SCORE.INTRA.DIHEDRAL.0>
5.07698

>  <SCORE.INTRA.POLAR>
0

>  <SCORE.INTRA.POLAR.0>
0

>  <SCORE.INTRA.REPUL>
0

>  <SCORE.INTRA.REPUL.0>
0

>  <SCORE.INTRA.VDW>
-300.858

>  <SCORE.INTRA.VDW.0>
300.544

>  <SCORE.INTRA.norm>
-11.1071

>  <SCORE.RESTR>
0

>  <SCORE.RESTR.CAVITY>
0

>  <SCORE.RESTR.norm>
0

>  <SCORE.SYSTEM>
-6.17862

>  <SCORE.SYSTEM.CONST>
0

>  <SCORE.SYSTEM.DIHEDRAL>
7.10363

>  <SCORE.SYSTEM.POLAR>
-3.81236

>  <SCORE.SYSTEM.VDW>
3.2316

>  <SCORE.SYSTEM.norm>
-0.228838

>  <SCORE.heavy>
27

>  <SCORE.norm>
-12.0683

$$$$
F2200-0525
  rDOCK(R)          3D
libRbt.so/2013.1/901 2013/11/27
 28 31  0  0  0  0  0  0  0  0999 V2000
  -24.6726   18.8052  -10.4220 O   0  0  0  0  0  0
  -24.2278   17.4559  -10.5408 C   0  0  0  0  0  0
  -23.6074   17.3302  -11.8791 C   0  0  0  0  0  0
  -24.0619   16.5182  -12.9005 C   0  0  0  0  0  0
  -23.2699   16.6022  -13.9755 N   0  0  0  0  0  0
  -22.3692   17.5102  -13.6913 C   0  0  0  0  0  0
  -21.5694   18.1178  -15.1002 S   0  0  0  0  0  0
  -19.9278   17.6219  -14.7942 C   0  0  0  0  0  0
  -18.6486   17.9683  -15.8835 C   0  0  0  0  0  0
  -17.6266   16.8263  -17.1907 C   0  0  0  0  0  0
  -17.8567   15.2518  -18.2363 Cl  0  0  0  0  0  0
  -16.0345   17.4261  -17.8319 C   0  0  0  0  0  0
  -15.4270   18.9701  -17.2200 C   0  0  0  0  0  0
  -14.0968   19.7255  -18.0237 Cl  0  0  0  0  0  0
  -16.2987   19.9589  -16.0292 C   0  0  0  0  0  0
  -17.8728   19.5286  -15.3656 C   0  0  0  0  0  0
  -22.4387   17.9778  -12.3668 N   0  0  0  0  0  0
  -21.4782   18.7852  -11.4706 C   0  0  0  0  0  0
  -21.5255   20.3724  -11.3587 C   0  0  0  0  0  0
  -23.1736   20.8649  -11.8251 C   0  0  0  0  0  0
  -23.4409   22.4704  -12.9768 C   0  0  0  0  0  0
  -22.0776   23.4508  -13.4323 C   0  0  0  0  0  0
  -22.5017   24.7574  -13.5664 O   0  0  0  0  0  0
  -23.9269   24.6796  -13.2637 C   0  0  0  0  0  0
  -24.5181   23.3504  -13.2462 O   0  0  0  0  0  0
  -20.4891   22.9757  -12.8797 C   0  0  0  0  0  0
  -20.2121   21.5271  -11.8106 C   0  0  0  0  0  0
  -25.0607   18.9199   -9.5410 H   0  0  0  0  0  0
  1  2  1  0  0  0
  1 28  1  0  0  0
  2  3  1  0  0  0
  3  4  2  0  0  0
  3 17  1  0  0  0
  4  5  1  0  0  0
  5  6  2  0  0  0
  6  7  1  0  0  0
  6 17  1  0  0  0
  7  8  1  0  0  0
  8  9  1  0  0  0
  9 10  2  0  0  0
  9 16  1  0  0  0
 10 11  1  0  0  0
 10 12  1  0  0  0
 12 13  2  0  0  0
 13 14  1  0  0  0
 13 15  1  0  0  0
 15 16  2  0  0  0
 17 18  1  0  0  0
 18 19  1  0  0  0
 19 20  2  0  0  0
 19 27  1  0  0  0
 20 21  1  0  0  0
 21 22  2  0  0  0
 21 25  1  0  0  0
 22 23  1  0  0  0
 22 26  1  0  0  0
 23 24  1  0  0  0
 24 25  1  0  0  0
 26 27  2  0  0  0
M  END
>  <CHROM.0>
-177.10412810,-169.70224555,109.05346439,-61.29068424,-32.56972431,-57.68342833
-157.30894834,-160.77599835

>  <CHROM.1>
-178.36438307,-116.56189561,-117.23858614,-179.68771147,-105.32879470,-98.66970113
23.32306577,-20.48152541,19.28621715,-14.39909529,2.75612914,0.59982701,0.13921456

>  <Name>
F2200-0525

>  <RI>
3.89717e+07

>  <Rbt.Current_Directory>
/home/adria/Escritorio/rDock_CMTR_LC/2pxcA_model/inputs_sah

>  <Rbt.Executable>
rbdock ($Id: //depot/dev/client3/rdock/2013.1/src/exe/rbdock.cxx#4 $)

>  <Rbt.Library>
libRbt.so (2013.1, Build901 2013/11/27)

>  <Rbt.Parameter_File>
/home/adria/Escritorio/rDock_2013.1_src/data/scripts/dock.prm

>  <Rbt.Receptor>
sah_rdock.prm

>  <SCORE>
-323.909

>  <SCORE.INTER>
-15.7499

>  <SCORE.INTER.CONST>
1

>  <SCORE.INTER.POLAR>
-0.882074

>  <SCORE.INTER.REPUL>
0

>  <SCORE.INTER.ROT>
6

>  <SCORE.INTER.VDW>
-24.1508

>  <SCORE.INTER.norm>
-0.583329

>  <SCORE.INTRA>
-302.474

>  <SCORE.INTRA.DIHEDRAL>
1.07139

>  <SCORE.INTRA.DIHEDRAL.0>
5.07698

>  <SCORE.INTRA.POLAR>
0

>  <SCORE.INTRA.POLAR.0>
0

>  <SCORE.INTRA.REPUL>
0

>  <SCORE.INTRA.REPUL.0>
0

>  <SCORE.INTRA.VDW>
-303.01

>  <SCORE.INTRA.VDW.0>
300.544

>  <SCORE.INTRA.norm>
-11.2027

>  <SCORE.RESTR>
0

>  <SCORE.RESTR.CAVITY>
0

>  <SCORE.RESTR.norm>
0

>  <SCORE.SYSTEM>
-5.68454

>  <SCORE.SYSTEM.CONST>
0

>  <SCORE.SYSTEM.DIHEDRAL>
8.65141

>  <SCORE.SYSTEM.POLAR>
-4.2645

>  <SCORE.SYSTEM.VDW>
4.48906

>  <SCORE.SYSTEM.norm>
-0.210539

>  <SCORE.heavy>
27

>  <SCORE.norm>
-11.9966

$$$$
F2200-0525
  rDOCK(R)          3D
libRbt.so/2013.1/901 2013/11/27
 28 31  0  0  0  0  0  0  0  0999 V2000
  -13.4262   18.7429  -18.5500 O   0  0  0  0  0  0
  -14.6923   18.1058  -18.3962 C   0  0  0  0  0  0
  -15.4625   18.9207  -17.4295 C   0  0  0  0  0  0
  -14.9186   19.7262  -16.4475 C   0  0  0  0  0  0
  -15.8741   20.3097  -15.7149 N   0  0  0  0  0  0
  -17.0127   19.9589  -16.2598 C   0  0  0  0  0  0
  -18.3225   20.9840  -15.7825 S   0  0  0  0  0  0
  -19.5142   19.8060  -15.3066 C   0  0  0  0  0  0
  -20.9609   20.2436  -14.4951 C   0  0  0  0  0  0
  -21.3900   21.6924  -13.1631 C   0  0  0  0  0  0
  -20.7872   23.4252  -12.6542 Cl  0  0  0  0  0  0
  -22.9079   21.5597  -12.1711 C   0  0  0  0  0  0
  -23.9094   20.1177  -12.3835 C   0  0  0  0  0  0
  -25.5008   20.0955  -11.7104 Cl  0  0  0  0  0  0
  -23.5113   18.8117  -13.5200 C   0  0  0  0  0  0
  -22.1053   18.8337  -14.5811 C   0  0  0  0  0  0
  -16.8751   19.0205  -17.2982 N   0  0  0  0  0  0
  -17.8644   18.0966  -18.0367 C   0  0  0  0  0  0
  -17.8107   16.5091  -17.9321 C   0  0  0  0  0  0
  -17.2665   16.1278  -16.2785 C   0  0  0  0  0  0
  -15.9504   14.6600  -15.9807 C   0  0  0  0  0  0
  -15.4204   13.6822  -17.3188 C   0  0  0  0  0  0
  -15.1444   12.4127  -16.8528 O   0  0  0  0  0  0
  -15.4279   12.5112  -15.4249 C   0  0  0  0  0  0
  -15.5722   13.8523  -14.8798 O   0  0  0  0  0  0
  -16.0475   14.0395  -18.9105 C   0  0  0  0  0  0
  -17.2654   15.3596  -19.2143 C   0  0  0  0  0  0
  -13.5720   19.6152  -18.9472 H   0  0  0  0  0  0
  1  2  1  0  0  0
  1 28  1  0  0  0
  2  3  1  0  0  0
  3  4  2  0  0  0
  3 17  1  0  0  0
  4  5  1  0  0  0
  5  6  2  0  0  0
  6  7  1  0  0  0
  6 17  1  0  0  0
  7  8  1  0  0  0
  8  9  1  0  0  0
  9 10  2  0  0  0
  9 16  1  0  0  0
 10 11  1  0  0  0
 10 12  1  0  0  0
 12 13  2  0  0  0
 13 14  1  0  0  0
 13 15  1  0  0  0
 15 16  2  0  0  0
 17 18  1  0  0  0
 18 19  1  0  0  0
 19 20  2  0  0  0
 19 27  1  0  0  0
 20 21  1  0  0  0
 21 22  2  0  0  0
 21 25  1  0  0  0
 22 23  1  0  0  0
 22 26  1  0  0  0
 23 24  1  0  0  0
 24 25  1  0  0  0
 26 27  2  0  0  0
M  END
>  <CHROM.0>
-176.07010660,-165.71733279,-46.01001096,64.99175288,167.90480549,58.61581176
83.13403058,-165.70891505

>  <CHROM.1>
-64.23791726,-26.27957825,-130.47344478,169.96054772,-33.33806164,55.40694378
33.94251332,-18.60408678,18.51791663,-15.46258065,-0.59203085,0.52488464
0.05258616

>  <Name>
F2200-0525

>  <RI>
3.89717e+07

>  <Rbt.Current_Directory>
/home/adria/Escritorio/rDock_CMTR_LC/2pxcA_model/inputs_sah

>  <Rbt.Executable>
rbdock ($Id: //depot/dev/client3/rdock/2013.1/src/exe/rbdock.cxx#4 $)

>  <Rbt.Library>
libRbt.so (2013.1, Build901 2013/11/27)

>  <Rbt.Parameter_File>
/home/adria/Escritorio/rDock_2013.1_src/data/scripts/dock.prm

>  <Rbt.Receptor>
sah_rdock.prm

>  <SCORE>
-317.971

>  <SCORE.INTER>
-16.0055

>  <SCORE.INTER.CONST>
1

>  <SCORE.INTER.POLAR>
-1.90046

>  <SCORE.INTER.REPUL>
0.00598899

>  <SCORE.INTER.ROT>
6

>  <SCORE.INTER.VDW>
-20.9739

>  <SCORE.INTER.norm>
-0.592795

>  <SCORE.INTRA>
-301.091

>  <SCORE.INTRA.DIHEDRAL>
3.03447

>  <SCORE.INTRA.DIHEDRAL.0>
5.07698

>  <SCORE.INTRA.POLAR>
0

>  <SCORE.INTRA.POLAR.0>
0

>  <SCORE.INTRA.REPUL>
0

>  <SCORE.INTRA.REPUL.0>
0

>  <SCORE.INTRA.VDW>
-302.608

>  <SCORE.INTRA.VDW.0>
300.544

>  <SCORE.INTRA.norm>
-11.1515

>  <SCORE.RESTR>
0

>  <SCORE.RESTR.CAVITY>
0

>  <SCORE.RESTR.norm>
0

>  <SCORE.SYSTEM>
-0.874561

>  <SCORE.SYSTEM.CONST>
0

>  <SCORE.SYSTEM.DIHEDRAL>
3.7826

>  <SCORE.SYSTEM.POLAR>
-3.54823

>  <SCORE.SYSTEM.VDW>
9.29813

>  <SCORE.SYSTEM.norm>
-0.0323911

>  <SCORE.heavy>
27

>  <SCORE.norm>
-11.7767

$$$$
F2200-0525
  rDOCK(R)          3D
libRbt.so/2013.1/901 2013/11/27
 28 31  0  0  0  0  0  0  0  0999 V2000
  -17.5791   19.9957  -14.3685 O   0  0  0  0  0  0
  -17.8153   18.7582  -15.0356 C   0  0  0  0  0  0
  -19.2558   18.4574  -14.8741 C   0  0  0  0  0  0
  -20.0526   18.8876  -13.8305 C   0  0  0  0  0  0
  -21.3022   18.4255  -13.9522 N   0  0  0  0  0  0
  -21.3398   17.7795  -15.0914 C   0  0  0  0  0  0
  -22.9538   17.5367  -15.6657 S   0  0  0  0  0  0
  -23.6957   19.0520  -15.2323 C   0  0  0  0  0  0
  -23.7843   19.5964  -13.6078 C   0  0  0  0  0  0
  -23.3884   21.3722  -12.7435 C   0  0  0  0  0  0
  -23.3518   23.2255  -13.1784 Cl  0  0  0  0  0  0
  -23.1468   21.4446  -10.9429 C   0  0  0  0  0  0
  -23.2098   19.9254  -10.0399 C   0  0  0  0  0  0
  -23.3046   19.9784   -8.3153 Cl  0  0  0  0  0  0
  -23.5086   18.3488  -10.8019 C   0  0  0  0  0  0
  -23.8135   18.1372  -12.5240 C   0  0  0  0  0  0
  -20.0855   17.6682  -15.7177 N   0  0  0  0  0  0
  -19.5428   16.7953  -16.8671 C   0  0  0  0  0  0
  -18.2726   15.8486  -16.7111 C   0  0  0  0  0  0
  -17.0927   16.3767  -17.9379 C   0  0  0  0  0  0
  -16.0626   15.0191  -18.9729 C   0  0  0  0  0  0
  -16.2344   13.3280  -18.6014 C   0  0  0  0  0  0
  -15.0360   12.6964  -18.8658 O   0  0  0  0  0  0
  -14.1869   13.7791  -19.3515 C   0  0  0  0  0  0
  -14.8555   15.0191  -19.7146 O   0  0  0  0  0  0
  -17.3410   12.8632  -17.3311 C   0  0  0  0  0  0
  -18.2819   14.0782  -16.3530 C   0  0  0  0  0  0
  -17.7459   19.8667  -13.4222 H   0  0  0  0  0  0
  1  2  1  0  0  0
  1 28  1  0  0  0
  2  3  1  0  0  0
  3  4  2  0  0  0
  3 17  1  0  0  0
  4  5  1  0  0  0
  5  6  2  0  0  0
  6  7  1  0  0  0
  6 17  1  0  0  0
  7  8  1  0  0  0
  8  9  1  0  0  0
  9 10  2  0  0  0
  9 16  1  0  0  0
 10 11  1  0  0  0
 10 12  1  0  0  0
 12 13  2  0  0  0
 13 14  1  0  0  0
 13 15  1  0  0  0
 15 16  2  0  0  0
 17 18  1  0  0  0
 18 19  1  0  0  0
 19 20  2  0  0  0
 19 27  1  0  0  0
 20 21  1  0  0  0
 21 22  2  0  0  0
 21 25  1  0  0  0
 22 23  1  0  0  0
 22 26  1  0  0  0
 23 24  1  0  0  0
 24 25  1  0  0  0
 26 27  2  0  0  0
M  END
>  <CHROM.0>
-53.99256572,69.12714469,-113.57918484,62.60056455,-31.30843004,-48.70878523
-155.28797915,-160.16639599

>  <CHROM.1>
64.58709980,-27.12328596,38.68207539,-60.12033310,133.52885534,45.16178612
-121.77542195,-20.33392425,17.96209755,-14.69457932,-0.19351110,0.89962355
-0.47857314

>  <Name>
F2200-0525

>  <RI>
3.89717e+07

>  <Rbt.Current_Directory>
/home/adria/Escritorio/rDock_CMTR_LC/2pxcA_model/inputs_sah

>  <Rbt.Executable>
rbdock ($Id: //depot/dev/client3/rdock/2013.1/src/exe/rbdock.cxx#4 $)

>  <Rbt.Library>
libRbt.so (2013.1, Build901 2013/11/27)

>  <Rbt.Parameter_File>
/home/adria/Escritorio/rDock_2013.1_src/data/scripts/dock.prm

>  <Rbt.Receptor>
sah_rdock.prm

>  <SCORE>
-315.76

>  <SCORE.INTER>
-8.94164

>  <SCORE.INTER.CONST>
1

>  <SCORE.INTER.POLAR>
-0.729647

>  <SCORE.INTER.REPUL>
0

>  <SCORE.INTER.ROT>
6

>  <SCORE.INTER.VDW>
-17.8608

>  <SCORE.INTER.norm>
-0.331172

>  <SCORE.INTRA>
-300.929

>  <SCORE.INTRA.DIHEDRAL>
0.981991

>  <SCORE.INTRA.DIHEDRAL.0>
5.07698

>  <SCORE.INTRA.POLAR>
0

>  <SCORE.INTRA.POLAR.0>
0

>  <SCORE.INTRA.REPUL>
0

>  <SCORE.INTRA.REPUL.0>
0

>  <SCORE.INTRA.VDW>
-301.42

>  <SCORE.INTRA.VDW.0>
300.544

>  <SCORE.INTRA.norm>
-11.1455

>  <SCORE.RESTR>
0

>  <SCORE.RESTR.CAVITY>
0

>  <SCORE.RESTR.norm>
0

>  <SCORE.SYSTEM>
-5.88913

>  <SCORE.SYSTEM.CONST>
0

>  <SCORE.SYSTEM.DIHEDRAL>
9.63272

>  <SCORE.SYSTEM.POLAR>
-4.1449

>  <SCORE.SYSTEM.VDW>
3.38717

>  <SCORE.SYSTEM.norm>
-0.218116

>  <SCORE.heavy>
27

>  <SCORE.norm>
-11.6948

$$$$
F2200-0525
  rDOCK(R)          3D
libRbt.so/2013.1/901 2013/11/27
 28 31  0  0  0  0  0  0  0  0999 V2000
  -23.3208   20.2876   -9.7653 O   0  0  0  0  0  0
  -24.1778   20.1254  -10.8931 C   0  0  0  0  0  0
  -23.6048   19.0295  -11.7070 C   0  0  0  0  0  0
  -24.0353   17.7166  -11.7005 C   0  0  0  0  0  0
  -23.2973   16.9604  -12.5212 N   0  0  0  0  0  0
  -22.4604   17.7775  -13.1114 C   0  0  0  0  0  0
  -21.7697   17.1006  -14.5462 S   0  0  0  0  0  0
  -20.0731   17.3779  -14.2649 C   0  0  0  0  0  0
  -18.8815   17.0439  -15.4531 C   0  0  0  0  0  0
  -18.3217   18.0106  -17.1293 C   0  0  0  0  0  0
  -18.3012   19.7706  -17.8553 Cl  0  0  0  0  0  0
  -17.3497   17.1192  -18.3808 C   0  0  0  0  0  0
  -16.9953   15.4115  -18.0885 C   0  0  0  0  0  0
  -15.8214   14.6176  -19.0774 Cl  0  0  0  0  0  0
  -17.5286   14.5388  -16.6360 C   0  0  0  0  0  0
  -18.4274   15.2888  -15.3196 C   0  0  0  0  0  0
  -22.5121   19.0924  -12.6153 N   0  0  0  0  0  0
  -21.5825   20.3161  -12.7424 C   0  0  0  0  0  0
  -21.8331   21.6798  -11.9605 C   0  0  0  0  0  0
  -23.0942   22.5578  -12.8632 C   0  0  0  0  0  0
  -22.9318   24.5264  -13.1342 C   0  0  0  0  0  0
  -21.6208   25.4008  -12.3965 C   0  0  0  0  0  0
  -22.0543   26.6783  -12.1048 O   0  0  0  0  0  0
  -23.4344   26.6800  -12.5784 C   0  0  0  0  0  0
  -23.8278   25.5792  -13.4445 O   0  0  0  0  0  0
  -20.4547   24.5088  -11.4485 C   0  0  0  0  0  0
  -20.5844   22.7142  -11.1644 C   0  0  0  0  0  0
  -23.6510   21.0313   -9.2382 H   0  0  0  0  0  0
  1  2  1  0  0  0
  1 28  1  0  0  0
  2  3  1  0  0  0
  3  4  2  0  0  0
  3 17  1  0  0  0
  4  5  1  0  0  0
  5  6  2  0  0  0
  6  7  1  0  0  0
  6 17  1  0  0  0
  7  8  1  0  0  0
  8  9  1  0  0  0
  9 10  2  0  0  0
  9 16  1  0  0  0
 10 11  1  0  0  0
 10 12  1  0  0  0
 12 13  2  0  0  0
 13 14  1  0  0  0
 13 15  1  0  0  0
 15 16  2  0  0  0
 17 18  1  0  0  0
 18 19  1  0  0  0
 19 20  2  0  0  0
 19 27  1  0  0  0
 20 21  1  0  0  0
 21 22  2  0  0  0
 21 25  1  0  0  0
 22 23  1  0  0  0
 22 26  1  0  0  0
 23 24  1  0  0  0
 24 25  1  0  0  0
 26 27  2  0  0  0
M  END
>  <CHROM.0>
-60.96297869,-75.54754389,-8.57536248,-64.69386261,-30.41757008,61.46047342
-159.23631259,-164.34994852

>  <CHROM.1>
177.20775700,99.25199787,-129.37573153,-173.75387079,76.26139220,-5.61131456
-79.32882868,-20.73164542,19.60287442,-14.26060483,2.35396227,0.81120723
0.00477694

>  <Name>
F2200-0525

>  <RI>
3.89717e+07

>  <Rbt.Current_Directory>
/home/adria/Escritorio/rDock_CMTR_LC/2pxcA_model/inputs_sah

>  <Rbt.Executable>
rbdock ($Id: //depot/dev/client3/rdock/2013.1/src/exe/rbdock.cxx#4 $)

>  <Rbt.Library>
libRbt.so (2013.1, Build901 2013/11/27)

>  <Rbt.Parameter_File>
/home/adria/Escritorio/rDock_2013.1_src/data/scripts/dock.prm

>  <Rbt.Receptor>
sah_rdock.prm

>  <SCORE>
-322.634

>  <SCORE.INTER>
-14.2846

>  <SCORE.INTER.CONST>
1

>  <SCORE.INTER.POLAR>
-1.91326

>  <SCORE.INTER.REPUL>
0.00212066

>  <SCORE.INTER.ROT>
6

>  <SCORE.INTER.VDW>
-19.1901

>  <SCORE.INTER.norm>
-0.52906

>  <SCORE.INTRA>
-300.971

>  <SCORE.INTRA.DIHEDRAL>
2.85017

>  <SCORE.INTRA.DIHEDRAL.0>
5.07698

>  <SCORE.INTRA.POLAR>
0

>  <SCORE.INTRA.POLAR.0>
0

>  <SCORE.INTRA.REPUL>
0

>  <SCORE.INTRA.REPUL.0>
0

>  <SCORE.INTRA.VDW>
-302.396

>  <SCORE.INTRA.VDW.0>
300.544

>  <SCORE.INTRA.norm>
-11.1471

>  <SCORE.RESTR>
0

>  <SCORE.RESTR.CAVITY>
0

>  <SCORE.RESTR.norm>
0

>  <SCORE.SYSTEM>
-7.37826

>  <SCORE.SYSTEM.CONST>
0

>  <SCORE.SYSTEM.DIHEDRAL>
9.50176

>  <SCORE.SYSTEM.POLAR>
-4.65317

>  <SCORE.SYSTEM.REPUL>
0.042764

>  <SCORE.SYSTEM.VDW>
3.47784

>  <SCORE.SYSTEM.norm>
-0.273269

>  <SCORE.heavy>
27

>  <SCORE.norm>
-11.9494

$$$$
F2200-0525
  rDOCK(R)          3D
libRbt.so/2013.1/901 2013/11/27
 28 31  0  0  0  0  0  0  0  0999 V2000
  -24.7056   19.7443  -16.3018 O   0  0  0  0  0  0
  -24.1151   18.8648  -15.3477 C   0  0  0  0  0  0
  -22.7166   19.3148  -15.1647 C   0  0  0  0  0  0
  -21.6705   19.0529  -16.0286 C   0  0  0  0  0  0
  -20.5237   19.5686  -15.5716 N   0  0  0  0  0  0
  -20.8311   20.2225  -14.4787 C   0  0  0  0  0  0
  -19.6077   21.3544  -14.0141 S   0  0  0  0  0  0
  -18.5918   21.3500  -15.4292 C   0  0  0  0  0  0
  -17.7512   19.9474  -15.9483 C   0  0  0  0  0  0
  -18.0654   17.9812  -15.6442 C   0  0  0  0  0  0
  -19.4930   16.7762  -15.2765 Cl  0  0  0  0  0  0
  -16.7093   16.8108  -15.9555 C   0  0  0  0  0  0
  -15.1467   17.4718  -16.4544 C   0  0  0  0  0  0
  -13.9378   16.3975  -17.0631 Cl  0  0  0  0  0  0
  -14.8477   19.2087  -16.6761 C   0  0  0  0  0  0
  -16.0814   20.4482  -16.4637 C   0  0  0  0  0  0
  -22.1718   20.0632  -14.0849 N   0  0  0  0  0  0
  -22.9406   20.3556  -12.7806 C   0  0  0  0  0  0
  -22.8180   21.7332  -11.9926 C   0  0  0  0  0  0
  -23.9377   22.8717  -12.7840 C   0  0  0  0  0  0
  -23.3801   24.7616  -13.0885 C   0  0  0  0  0  0
  -21.8491   25.3251  -12.4836 C   0  0  0  0  0  0
  -21.9680   26.6630  -12.1660 O   0  0  0  0  0  0
  -23.3529   26.9671  -12.5104 C   0  0  0  0  0  0
  -24.0526   25.9859  -13.3255 O   0  0  0  0  0  0
  -20.8206   24.1929  -11.6381 C   0  0  0  0  0  0
  -21.3077   22.4657  -11.3254 C   0  0  0  0  0  0
  -24.6578   20.6472  -15.9520 H   0  0  0  0  0  0
  1  2  1  0  0  0
  1 28  1  0  0  0
  2  3  1  0  0  0
  3  4  2  0  0  0
  3 17  1  0  0  0
  4  5  1  0  0  0
  5  6  2  0  0  0
  6  7  1  0  0  0
  6 17  1  0  0  0
  7  8  1  0  0  0
  8  9  1  0  0  0
  9 10  2  0  0  0
  9 16  1  0  0  0
 10 11  1  0  0  0
 10 12  1  0  0  0
 12 13  2  0  0  0
 13 14  1  0  0  0
 13 15  1  0  0  0
 15 16  2  0  0  0
 17 18  1  0  0  0
 18 19  1  0  0  0
 19 20  2  0  0  0
 19 27  1  0  0  0
 20 21  1  0  0  0
 21 22  2  0  0  0
 21 25  1  0  0  0
 22 23  1  0  0  0
 22 26  1  0  0  0
 23 24  1  0  0  0
 24 25  1  0  0  0
 26 27  2  0  0  0
M  END
>  <CHROM.0>
41.51474140,-74.66672337,-165.84147954,-59.45551201,-31.15452001,-178.75624068
83.85337063,-167.89018996

>  <CHROM.1>
-59.35577950,-78.60563872,10.79131665,-63.33805847,23.44110836,-143.23551731
83.12843880,-20.15439353,20.58549221,-14.59907678,2.30851526,0.11745603,0.37512953

>  <Name>
F2200-0525

>  <RI>
3.89717e+07

>  <Rbt.Current_Directory>
/home/adria/Escritorio/rDock_CMTR_LC/2pxcA_model/inputs_sah

>  <Rbt.Executable>
rbdock ($Id: //depot/dev/client3/rdock/2013.1/src/exe/rbdock.cxx#4 $)

>  <Rbt.Library>
libRbt.so (2013.1, Build901 2013/11/27)

>  <Rbt.Parameter_File>
/home/adria/Escritorio/rDock_2013.1_src/data/scripts/dock.prm

>  <Rbt.Receptor>
sah_rdock.prm

>  <SCORE>
-322.96

>  <SCORE.INTER>
-18.8448

>  <SCORE.INTER.CONST>
1

>  <SCORE.INTER.POLAR>
-2.30406

>  <SCORE.INTER.REPUL>
0

>  <SCORE.INTER.ROT>
6

>  <SCORE.INTER.VDW>
-22.411

>  <SCORE.INTER.norm>
-0.697955

>  <SCORE.INTRA>
-301.299

>  <SCORE.INTRA.DIHEDRAL>
1.9096

>  <SCORE.INTRA.DIHEDRAL.0>
5.07698

>  <SCORE.INTRA.POLAR>
0

>  <SCORE.INTRA.POLAR.0>
0

>  <SCORE.INTRA.REPUL>
0

>  <SCORE.INTRA.REPUL.0>
0

>  <SCORE.INTRA.VDW>
-302.254

>  <SCORE.INTRA.VDW.0>
300.544

>  <SCORE.INTRA.norm>
-11.1592

>  <SCORE.RESTR>
0

>  <SCORE.RESTR.CAVITY>
0

>  <SCORE.RESTR.norm>
0

>  <SCORE.SYSTEM>
-2.81638

>  <SCORE.SYSTEM.CONST>
0

>  <SCORE.SYSTEM.DIHEDRAL>
7.87099

>  <SCORE.SYSTEM.POLAR>
-3.90552

>  <SCORE.SYSTEM.REPUL>
0.159338

>  <SCORE.SYSTEM.VDW>
5.73021

>  <SCORE.SYSTEM.norm>
-0.10431

>  <SCORE.heavy>
27

>  <SCORE.norm>
-11.9615

$$$$
F2200-0525
  rDOCK(R)          3D
libRbt.so/2013.1/901 2013/11/27
 28 31  0  0  0  0  0  0  0  0999 V2000
  -23.4315   15.9248  -12.9578 O   0  0  0  0  0  0
  -23.4724   17.3462  -13.0598 C   0  0  0  0  0  0
  -22.0793   17.7958  -13.2808 C   0  0  0  0  0  0
  -21.3219   17.5355  -14.4067 C   0  0  0  0  0  0
  -20.0922   18.0504  -14.2935 N   0  0  0  0  0  0
  -20.0761   18.7023  -13.1572 C   0  0  0  0  0  0
  -18.7705   19.8333  -13.0574 S   0  0  0  0  0  0
  -18.3961   20.0631  -14.7431 C   0  0  0  0  0  0
  -17.1975   19.1375  -15.5491 C   0  0  0  0  0  0
  -15.5059   19.6473  -16.5167 C   0  0  0  0  0  0
  -14.1961   21.0291  -16.5268 Cl  0  0  0  0  0  0
  -14.7361   18.4460  -17.6437 C   0  0  0  0  0  0
  -15.5552   16.8972  -17.8841 C   0  0  0  0  0  0
  -14.7118   15.6178  -18.6828 Cl  0  0  0  0  0  0
  -17.0739   16.4601  -17.0728 C   0  0  0  0  0  0
  -17.8996   17.5015  -15.9165 C   0  0  0  0  0  0
  -21.2498   18.5423  -12.3990 N   0  0  0  0  0  0
  -21.6162   18.8323  -10.9295 C   0  0  0  0  0  0
  -21.8905   20.3002  -10.3783 C   0  0  0  0  0  0
  -23.0119   20.1248   -9.0043 C   0  0  0  0  0  0
  -24.5142   21.4161   -8.7785 C   0  0  0  0  0  0
  -24.6630   22.7743   -9.8558 C   0  0  0  0  0  0
  -25.2312   23.8242   -9.1629 O   0  0  0  0  0  0
  -25.4470   23.2686   -7.8311 C   0  0  0  0  0  0
  -25.3412   21.8232   -7.7026 O   0  0  0  0  0  0
  -23.4887   22.9524  -11.1379 C   0  0  0  0  0  0
  -22.0933   21.8028  -11.3601 C   0  0  0  0  0  0
  -22.9067   15.6919  -12.1766 H   0  0  0  0  0  0
  1  2  1  0  0  0
  1 28  1  0  0  0
  2  3  1  0  0  0
  3  4  2  0  0  0
  3 17  1  0  0  0
  4  5  1  0  0  0
  5  6  2  0  0  0
  6  7  1  0  0  0
  6 17  1  0  0  0
  7  8  1  0  0  0
  8  9  1  0  0  0
  9 10  2  0  0  0
  9 16  1  0  0  0
 10 11  1  0  0  0
 10 12  1  0  0  0
 12 13  2  0  0  0
 13 14  1  0  0  0
 13 15  1  0  0  0
 15 16  2  0  0  0
 17 18  1  0  0  0
 18 19  1  0  0  0
 19 20  2  0  0  0
 19 27  1  0  0  0
 20 21  1  0  0  0
 21 22  2  0  0  0
 21 25  1  0  0  0
 22 23  1  0  0  0
 22 26  1  0  0  0
 23 24  1  0  0  0
 24 25  1  0  0  0
 26 27  2  0  0  0
M  END
>  <CHROM.0>
176.30822418,-168.70241825,-131.18288411,-60.87670533,-30.86096479,178.30508954
-156.57764646,-162.21619608

>  <CHROM.1>
63.52284531,66.47007572,21.10244054,-93.08846315,-120.67811159,-115.21606326
152.11578867,-19.88502020,19.37306583,-13.47979884,2.57027989,0.55427799
0.44044043

>  <Name>
F2200-0525

>  <RI>
3.89717e+07

>  <Rbt.Current_Directory>
/home/adria/Escritorio/rDock_CMTR_LC/2pxcA_model/inputs_sah

>  <Rbt.Executable>
rbdock ($Id: //depot/dev/client3/rdock/2013.1/src/exe/rbdock.cxx#4 $)

>  <Rbt.Library>
libRbt.so (2013.1, Build901 2013/11/27)

>  <Rbt.Parameter_File>
/home/adria/Escritorio/rDock_2013.1_src/data/scripts/dock.prm

>  <Rbt.Receptor>
sah_rdock.prm

>  <SCORE>
-327.761

>  <SCORE.INTER>
-22.4682

>  <SCORE.INTER.CONST>
1

>  <SCORE.INTER.POLAR>
-1.7521

>  <SCORE.INTER.REPUL>
0

>  <SCORE.INTER.ROT>
6

>  <SCORE.INTER.VDW>
-27.9111

>  <SCORE.INTER.norm>
-0.832157

>  <SCORE.INTRA>
-299.818

>  <SCORE.INTRA.DIHEDRAL>
2.78683

>  <SCORE.INTRA.DIHEDRAL.0>
5.07698

>  <SCORE.INTRA.POLAR>
0

>  <SCORE.INTRA.POLAR.0>
0

>  <SCORE.INTRA.REPUL>
0

>  <SCORE.INTRA.REPUL.0>
0

>  <SCORE.INTRA.VDW>
-301.212

>  <SCORE.INTRA.VDW.0>
300.544

>  <SCORE.INTRA.norm>
-11.1044

>  <SCORE.RESTR>
0

>  <SCORE.RESTR.CAVITY>
0

>  <SCORE.RESTR.norm>
0

>  <SCORE.SYSTEM>
-5.4746

>  <SCORE.SYSTEM.CONST>
0

>  <SCORE.SYSTEM.DIHEDRAL>
9.06756

>  <SCORE.SYSTEM.POLAR>
-4.21416

>  <SCORE.SYSTEM.VDW>
4.31975

>  <SCORE.SYSTEM.norm>
-0.202763

>  <SCORE.heavy>
27

>  <SCORE.norm>
-12.1393

$$$$
F2200-0525
  rDOCK(R)          3D
libRbt.so/2013.1/901 2013/11/27
 28 31  0  0  0  0  0  0  0  0999 V2000
  -26.2437   18.4135  -12.1028 O   0  0  0  0  0  0
  -25.1926   17.8573  -11.3164 C   0  0  0  0  0  0
  -23.9463   18.0187  -12.0990 C   0  0  0  0  0  0
  -23.1435   16.9884  -12.5495 C   0  0  0  0  0  0
  -22.0730   17.4574  -13.2008 N   0  0  0  0  0  0
  -22.2185   18.7586  -13.2464 C   0  0  0  0  0  0
  -21.2214   19.4978  -14.4519 S   0  0  0  0  0  0
  -19.7985   18.4963  -14.3708 C   0  0  0  0  0  0
  -18.6089   18.4940  -15.6068 C   0  0  0  0  0  0
  -17.8910   17.0409  -16.8028 C   0  0  0  0  0  0
  -18.4357   15.3838  -17.5662 Cl  0  0  0  0  0  0
  -16.3118   17.3050  -17.6644 C   0  0  0  0  0  0
  -15.4455   18.8154  -17.3555 C   0  0  0  0  0  0
  -14.1215   19.2469  -18.3788 Cl  0  0  0  0  0  0
  -16.0478   20.0801  -16.2631 C   0  0  0  0  0  0
  -17.5846   19.9825  -15.4075 C   0  0  0  0  0  0
  -23.3234   19.2281  -12.5138 N   0  0  0  0  0  0
  -23.7554   20.6213  -12.0137 C   0  0  0  0  0  0
  -22.7590   21.8601  -11.9319 C   0  0  0  0  0  0
  -22.8932   22.5107  -10.2782 C   0  0  0  0  0  0
  -22.9282   24.4829   -9.9876 C   0  0  0  0  0  0
  -22.7163   25.5644  -11.3341 C   0  0  0  0  0  0
  -22.0893   26.7086  -10.8837 O   0  0  0  0  0  0
  -21.9131   26.4547   -9.4577 C   0  0  0  0  0  0
  -22.6685   25.3462   -8.8946 O   0  0  0  0  0  0
  -22.5025   24.8782  -12.9271 C   0  0  0  0  0  0
  -22.4456   23.0820  -13.2248 C   0  0  0  0  0  0
  -26.3204   17.8936  -12.9175 H   0  0  0  0  0  0
  1  2  1  0  0  0
  1 28  1  0  0  0
  2  3  1  0  0  0
  3  4  2  0  0  0
  3 17  1  0  0  0
  4  5  1  0  0  0
  5  6  2  0  0  0
  6  7  1  0  0  0
  6 17  1  0  0  0
  7  8  1  0  0  0
  8  9  1  0  0  0
  9 10  2  0  0  0
  9 16  1  0  0  0
 10 11  1  0  0  0
 10 12  1  0  0  0
 12 13  2  0  0  0
 13 14  1  0  0  0
 13 15  1  0  0  0
 15 16  2  0  0  0
 17 18  1  0  0  0
 18 19  1  0  0  0
 19 20  2  0  0  0
 19 27  1  0  0  0
 20 21  1  0  0  0
 21 22  2  0  0  0
 21 25  1  0  0  0
 22 23  1  0  0  0
 22 26  1  0  0  0
 23 24  1  0  0  0
 24 25  1  0  0  0
 26 27  2  0  0  0
M  END
>  <CHROM.0>
-64.39421220,-72.29188701,71.18290081,-142.54876573,168.28610765,59.79117592
-37.58690122,-162.54217895

>  <CHROM.1>
63.31482667,-118.56990211,-35.50132283,164.12995117,-120.62756695,152.50176337
-128.16941595,-20.64520488,20.14147356,-13.85250619,2.36359543,0.53479255
0.38566948

>  <Name>
F2200-0525

>  <RI>
3.89717e+07

>  <Rbt.Current_Directory>
/home/adria/Escritorio/rDock_CMTR_LC/2pxcA_model/inputs_sah

>  <Rbt.Executable>
rbdock ($Id: //depot/dev/client3/rdock/2013.1/src/exe/rbdock.cxx#4 $)

>  <Rbt.Library>
libRbt.so (2013.1, Build901 2013/11/27)

>  <Rbt.Parameter_File>
/home/adria/Escritorio/rDock_2013.1_src/data/scripts/dock.prm

>  <Rbt.Receptor>
sah_rdock.prm

>  <SCORE>
-313.382

>  <SCORE.INTER>
-11.9287

>  <SCORE.INTER.CONST>
1

>  <SCORE.INTER.POLAR>
-0.7309

>  <SCORE.INTER.REPUL>
0

>  <SCORE.INTER.ROT>
6

>  <SCORE.INTER.VDW>
-20.8436

>  <SCORE.INTER.norm>
-0.441804

>  <SCORE.INTRA>
-302.037

>  <SCORE.INTRA.DIHEDRAL>
-0.720446

>  <SCORE.INTRA.DIHEDRAL.0>
5.07698

>  <SCORE.INTRA.POLAR>
0

>  <SCORE.INTRA.POLAR.0>
0

>  <SCORE.INTRA.REPUL>
0

>  <SCORE.INTRA.REPUL.0>
0

>  <SCORE.INTRA.VDW>
-301.677

>  <SCORE.INTRA.VDW.0>
300.544

>  <SCORE.INTRA.norm>
-11.1866

>  <SCORE.RESTR>
0

>  <SCORE.RESTR.CAVITY>
0

>  <SCORE.RESTR.norm>
0

>  <SCORE.SYSTEM>
0.583222

>  <SCORE.SYSTEM.CONST>
0

>  <SCORE.SYSTEM.DIHEDRAL>
8.27617

>  <SCORE.SYSTEM.POLAR>
-3.9271

>  <SCORE.SYSTEM.REPUL>
0.0372465

>  <SCORE.SYSTEM.VDW>
9.61104

>  <SCORE.SYSTEM.norm>
0.0216008

>  <SCORE.heavy>
27

>  <SCORE.norm>
-11.6068

$$$$
F2200-0525
  rDOCK(R)          3D
libRbt.so/2013.1/901 2013/11/27
 28 31  0  0  0  0  0  0  0  0999 V2000
  -22.6469   27.0025  -12.4584 O   0  0  0  0  0  0
  -22.5108   25.9997  -11.4543 C   0  0  0  0  0  0
  -21.7757   24.8746  -12.0752 C   0  0  0  0  0  0
  -20.4597   24.5391  -11.8208 C   0  0  0  0  0  0
  -20.0747   23.4925  -12.5600 N   0  0  0  0  0  0
  -21.1387   23.1032  -13.2179 C   0  0  0  0  0  0
  -20.9871   21.4941  -13.8358 S   0  0  0  0  0  0
  -19.5354   21.6357  -14.7880 C   0  0  0  0  0  0
  -18.7497   20.2706  -15.4679 C   0  0  0  0  0  0
  -18.9362   18.2912  -15.1445 C   0  0  0  0  0  0
  -20.2339   17.0301  -14.5523 Cl  0  0  0  0  0  0
  -17.6150   17.1755  -15.7062 C   0  0  0  0  0  0
  -16.1882   17.8992  -16.4598 C   0  0  0  0  0  0
  -15.0673   16.8768  -17.2870 Cl  0  0  0  0  0  0
  -15.9942   19.6482  -16.7030 C   0  0  0  0  0  0
  -17.2146   20.8384  -16.2589 C   0  0  0  0  0  0
  -22.2474   23.9518  -13.0493 N   0  0  0  0  0  0
  -23.5874   24.1142  -13.7948 C   0  0  0  0  0  0
  -24.8692   23.2255  -13.4769 C   0  0  0  0  0  0
  -24.5772   22.4622  -11.8932 C   0  0  0  0  0  0
  -25.0802   20.5547  -11.6033 C   0  0  0  0  0  0
  -25.9028   19.6719  -12.8567 C   0  0  0  0  0  0
  -26.7322   18.7402  -12.2658 O   0  0  0  0  0  0
  -26.5033   18.9452  -10.8394 C   0  0  0  0  0  0
  -25.3418   19.7411  -10.4732 O   0  0  0  0  0  0
  -26.2443   20.4890  -14.3634 C   0  0  0  0  0  0
  -25.8167   22.2357  -14.6539 C   0  0  0  0  0  0
  -23.2938   27.6551  -12.1494 H   0  0  0  0  0  0
  1  2  1  0  0  0
  1 28  1  0  0  0
  2  3  1  0  0  0
  3  4  2  0  0  0
  3 17  1  0  0  0
  4  5  1  0  0  0
  5  6  2  0  0  0
  6  7  1  0  0  0
  6 17  1  0  0  0
  7  8  1  0  0  0
  8  9  1  0  0  0
  9 10  2  0  0  0
  9 16  1  0  0  0
 10 11  1  0  0  0
 10 12  1  0  0  0
 12 13  2  0  0  0
 13 14  1  0  0  0
 13 15  1  0  0  0
 15 16  2  0  0  0
 17 18  1  0  0  0
 18 19  1  0  0  0
 19 20  2  0  0  0
 19 27  1  0  0  0
 20 21  1  0  0  0
 21 22  2  0  0  0
 21 25  1  0  0  0
 22 23  1  0  0  0
 22 26  1  0  0  0
 23 24  1  0  0  0
 24 25  1  0  0  0
 26 27  2  0  0  0
M  END
>  <CHROM.0>
-61.22409404,65.01933273,73.54130623,67.73869207,-32.38113836,58.09934553
83.87426735,-167.69188597

>  <CHROM.1>
167.08227137,106.77203599,-56.45486471,170.64733770,-13.71055344,-105.97254672
16.22457737,-21.32676548,20.88016407,-13.85507731,-2.57423119,-0.37361845
-2.94620637

>  <Name>
F2200-0525

>  <RI>
3.89717e+07

>  <Rbt.Current_Directory>
/home/adria/Escritorio/rDock_CMTR_LC/2pxcA_model/inputs_sah

>  <Rbt.Executable>
rbdock ($Id: //depot/dev/client3/rdock/2013.1/src/exe/rbdock.cxx#4 $)

>  <Rbt.Library>
libRbt.so (2013.1, Build901 2013/11/27)

>  <Rbt.Parameter_File>
/home/adria/Escritorio/rDock_2013.1_src/data/scripts/dock.prm

>  <Rbt.Receptor>
sah_rdock.prm

>  <SCORE>
-318.867

>  <SCORE.INTER>
-9.65037

>  <SCORE.INTER.CONST>
1

>  <SCORE.INTER.POLAR>
-0.839339

>  <SCORE.INTER.REPUL>
0.572631

>  <SCORE.INTER.ROT>
6

>  <SCORE.INTER.VDW>
-21.0598

>  <SCORE.INTER.norm>
-0.357421

>  <SCORE.INTRA>
-301.96

>  <SCORE.INTRA.DIHEDRAL>
1.35944

>  <SCORE.INTRA.DIHEDRAL.0>
5.07698

>  <SCORE.INTRA.POLAR>
0

>  <SCORE.INTRA.POLAR.0>
0

>  <SCORE.INTRA.REPUL>
0

>  <SCORE.INTRA.REPUL.0>
0

>  <SCORE.INTRA.VDW>
-302.639

>  <SCORE.INTRA.VDW.0>
300.544

>  <SCORE.INTRA.norm>
-11.1837

>  <SCORE.RESTR>
0

>  <SCORE.RESTR.CAVITY>
0

>  <SCORE.RESTR.norm>
0

>  <SCORE.SYSTEM>
-7.25742

>  <SCORE.SYSTEM.CONST>
0

>  <SCORE.SYSTEM.DIHEDRAL>
5.46794

>  <SCORE.SYSTEM.POLAR>
-3.71096

>  <SCORE.SYSTEM.VDW>
2.62588

>  <SCORE.SYSTEM.norm>
-0.268793

>  <SCORE.heavy>
27

>  <SCORE.norm>
-11.8099

$$$$
F2200-0525
  rDOCK(R)          3D
libRbt.so/2013.1/901 2013/11/27
 28 31  0  0  0  0  0  0  0  0999 V2000
  -20.7398   17.6353  -10.7566 O   0  0  0  0  0  0
  -21.4477   18.5103  -11.6315 C   0  0  0  0  0  0
  -20.5480   18.7865  -12.7743 C   0  0  0  0  0  0
  -20.2377   17.8957  -13.7839 C   0  0  0  0  0  0
  -19.3740   18.4311  -14.6543 N   0  0  0  0  0  0
  -19.1911   19.6693  -14.2674 C   0  0  0  0  0  0
  -18.5154   20.6626  -15.5126 S   0  0  0  0  0  0
  -16.9406   19.9417  -15.6992 C   0  0  0  0  0  0
  -16.7002   18.4773  -16.5599 C   0  0  0  0  0  0
  -17.2707   16.5788  -16.2028 C   0  0  0  0  0  0
  -18.6445   15.6183  -15.2999 Cl  0  0  0  0  0  0
  -16.4385   15.2249  -17.0861 C   0  0  0  0  0  0
  -15.1128   15.6440  -18.1789 C   0  0  0  0  0  0
  -14.5121   14.4438  -19.2673 Cl  0  0  0  0  0  0
  -14.5707   17.3121  -18.4608 C   0  0  0  0  0  0
  -15.3197   18.7224  -17.7170 C   0  0  0  0  0  0
  -19.8200   19.9774  -13.0478 N   0  0  0  0  0  0
  -19.6858   21.1404  -12.0442 C   0  0  0  0  0  0
  -20.7639   22.3046  -11.9176 C   0  0  0  0  0  0
  -19.8819   23.7565  -11.3788 C   0  0  0  0  0  0
  -20.6858   24.9510   -9.9996 C   0  0  0  0  0  0
  -22.2910   24.6373   -9.4061 C   0  0  0  0  0  0
  -22.8805   25.8412   -9.0772 O   0  0  0  0  0  0
  -21.8412   26.8181   -9.3846 C   0  0  0  0  0  0
  -20.4998   26.2972   -9.5990 O   0  0  0  0  0  0
  -23.1515   23.2488  -10.0273 C   0  0  0  0  0  0
  -22.4548   22.1492  -11.3015 C   0  0  0  0  0  0
  -19.9179   18.0741  -10.4886 H   0  0  0  0  0  0
  1  2  1  0  0  0
  1 28  1  0  0  0
  2  3  1  0  0  0
  3  4  2  0  0  0
  3 17  1  0  0  0
  4  5  1  0  0  0
  5  6  2  0  0  0
  6  7  1  0  0  0
  6 17  1  0  0  0
  7  8  1  0  0  0
  8  9  1  0  0  0
  9 10  2  0  0  0
  9 16  1  0  0  0
 10 11  1  0  0  0
 10 12  1  0  0  0
 12 13  2  0  0  0
 13 14  1  0  0  0
 13 15  1  0  0  0
 15 16  2  0  0  0
 17 18  1  0  0  0
 18 19  1  0  0  0
 19 20  2  0  0  0
 19 27  1  0  0  0
 20 21  1  0  0  0
 21 22  2  0  0  0
 21 25  1  0  0  0
 22 23  1  0  0  0
 22 26  1  0  0  0
 23 24  1  0  0  0
 24 25  1  0  0  0
 26 27  2  0  0  0
M  END
>  <CHROM.0>
169.52434345,66.62283032,-8.09687347,65.30401008,168.03891061,58.74089016
-43.51113597,-167.69344817

>  <CHROM.1>
58.47027737,73.24096121,-65.84945764,77.68614042,-66.78425540,-85.94464042
-150.41977010,-18.98512625,19.72023521,-13.90899722,2.25394709,0.77265880
0.21758417

>  <Name>
F2200-0525

>  <RI>
3.89717e+07

>  <Rbt.Current_Directory>
/home/adria/Escritorio/rDock_CMTR_LC/2pxcA_model/inputs_sah

>  <Rbt.Executable>
rbdock ($Id: //depot/dev/client3/rdock/2013.1/src/exe/rbdock.cxx#4 $)

>  <Rbt.Library>
libRbt.so (2013.1, Build901 2013/11/27)

>  <Rbt.Parameter_File>
/home/adria/Escritorio/rDock_2013.1_src/data/scripts/dock.prm

>  <Rbt.Receptor>
sah_rdock.prm

>  <SCORE>
-327.032

>  <SCORE.INTER>
-25.0434

>  <SCORE.INTER.CONST>
1

>  <SCORE.INTER.POLAR>
-2.8945

>  <SCORE.INTER.REPUL>
0

>  <SCORE.INTER.ROT>
6

>  <SCORE.INTER.VDW>
-26.6021

>  <SCORE.INTER.norm>
-0.927533

>  <SCORE.INTRA>
-300.893

>  <SCORE.INTRA.DIHEDRAL>
4.07371

>  <SCORE.INTRA.DIHEDRAL.0>
5.07698

>  <SCORE.INTRA.POLAR>
0

>  <SCORE.INTRA.POLAR.0>
0

>  <SCORE.INTRA.REPUL>
0

>  <SCORE.INTRA.REPUL.0>
0

>  <SCORE.INTRA.VDW>
-302.93

>  <SCORE.INTRA.VDW.0>
300.544

>  <SCORE.INTRA.norm>
-11.1442

>  <SCORE.RESTR>
0

>  <SCORE.RESTR.CAVITY>
0

>  <SCORE.RESTR.norm>
0

>  <SCORE.SYSTEM>
-1.0955

>  <SCORE.SYSTEM.CONST>
0

>  <SCORE.SYSTEM.DIHEDRAL>
5.85641

>  <SCORE.SYSTEM.POLAR>
-3.94789

>  <SCORE.SYSTEM.VDW>
9.3991

>  <SCORE.SYSTEM.norm>
-0.0405742

>  <SCORE.heavy>
27

>  <SCORE.norm>
-12.1123

$$$$
F2200-0525
  rDOCK(R)          3D
libRbt.so/2013.1/901 2013/11/27
 28 31  0  0  0  0  0  0  0  0999 V2000
  -23.6518   16.0662  -12.9282 O   0  0  0  0  0  0
  -23.5103   17.3946  -12.4306 C   0  0  0  0  0  0
  -22.0827   17.7555  -12.5846 C   0  0  0  0  0  0
  -21.1583   17.0635  -13.3433 C   0  0  0  0  0  0
  -19.9452   17.6211  -13.2565 N   0  0  0  0  0  0
  -20.0937   18.6988  -12.5264 C   0  0  0  0  0  0
  -18.7785   19.8091  -12.7038 S   0  0  0  0  0  0
  -18.8113   20.0964  -14.4215 C   0  0  0  0  0  0
  -18.0938   19.0158  -15.5443 C   0  0  0  0  0  0
  -17.9634   17.0067  -15.6077 C   0  0  0  0  0  0
  -18.9015   15.4681  -14.9930 Cl  0  0  0  0  0  0
  -16.7297   16.2350  -16.6978 C   0  0  0  0  0  0
  -15.6524   17.3005  -17.6097 C   0  0  0  0  0  0
  -14.6929   16.6328  -18.8823 Cl  0  0  0  0  0  0
  -15.7281   19.0731  -17.5206 C   0  0  0  0  0  0
  -16.9059   19.9539  -16.5510 C   0  0  0  0  0  0
  -21.3835   18.8383  -11.9834 N   0  0  0  0  0  0
  -21.9794   19.7191  -10.8669 C   0  0  0  0  0  0
  -21.8823   21.3080  -10.8716 C   0  0  0  0  0  0
  -23.5173   21.9150  -11.2383 C   0  0  0  0  0  0
  -23.7477   23.4561  -12.4823 C   0  0  0  0  0  0
  -22.3515   24.2756  -13.1199 C   0  0  0  0  0  0
  -22.6736   25.6031  -13.3173 O   0  0  0  0  0  0
  -24.0683   25.6756  -12.8948 C   0  0  0  0  0  0
  -24.7660   24.4098  -12.7290 O   0  0  0  0  0  0
  -20.7665   23.6971  -12.6640 C   0  0  0  0  0  0
  -20.5205   22.3054  -11.5147 C   0  0  0  0  0  0
  -23.0713   15.4858  -12.4124 H   0  0  0  0  0  0
  1  2  1  0  0  0
  1 28  1  0  0  0
  2  3  1  0  0  0
  3  4  2  0  0  0
  3 17  1  0  0  0
  4  5  1  0  0  0
  5  6  2  0  0  0
  6  7  1  0  0  0
  6 17  1  0  0  0
  7  8  1  0  0  0
  8  9  1  0  0  0
  9 10  2  0  0  0
  9 16  1  0  0  0
 10 11  1  0  0  0
 10 12  1  0  0  0
 12 13  2  0  0  0
 13 14  1  0  0  0
 13 15  1  0  0  0
 15 16  2  0  0  0
 17 18  1  0  0  0
 18 19  1  0  0  0
 19 20  2  0  0  0
 19 27  1  0  0  0
 20 21  1  0  0  0
 21 22  2  0  0  0
 21 25  1  0  0  0
 22 23  1  0  0  0
 22 26  1  0  0  0
 23 24  1  0  0  0
 24 25  1  0  0  0
 26 27  2  0  0  0
M  END
>  <CHROM.0>
-62.12138760,62.76223317,-167.34872253,-60.25991624,-31.01049788,60.45472576
-38.28587114,-168.13073729

>  <CHROM.1>
59.22432291,13.67827550,57.56588750,-81.54695467,37.36183486,-134.27539933
107.75183227,-20.02809037,19.49538982,-14.00607547,2.53561412,0.66946917
-0.07187999

>  <Name>
F2200-0525

>  <RI>
3.89717e+07

>  <Rbt.Current_Directory>
/home/adria/Escritorio/rDock_CMTR_LC/2pxcA_model/inputs_sah

>  <Rbt.Executable>
rbdock ($Id: //depot/dev/client3/rdock/2013.1/src/exe/rbdock.cxx#4 $)

>  <Rbt.Library>
libRbt.so (2013.1, Build901 2013/11/27)

>  <Rbt.Parameter_File>
/home/adria/Escritorio/rDock_2013.1_src/data/scripts/dock.prm

>  <Rbt.Receptor>
sah_rdock.prm

>  <SCORE>
-330.487

>  <SCORE.INTER>
-22.5912

>  <SCORE.INTER.CONST>
1

>  <SCORE.INTER.POLAR>
-2.31399

>  <SCORE.INTER.REPUL>
0.00602148

>  <SCORE.INTER.ROT>
6

>  <SCORE.INTER.VDW>
-26.1537

>  <SCORE.INTER.norm>
-0.83671

>  <SCORE.INTRA>
-301.015

>  <SCORE.INTRA.DIHEDRAL>
3.0925

>  <SCORE.INTRA.DIHEDRAL.0>
5.07698

>  <SCORE.INTRA.POLAR>
0

>  <SCORE.INTRA.POLAR.0>
0

>  <SCORE.INTRA.REPUL>
0

>  <SCORE.INTRA.REPUL.0>
0

>  <SCORE.INTRA.VDW>
-302.562

>  <SCORE.INTRA.VDW.0>
300.544

>  <SCORE.INTRA.norm>
-11.1487

>  <SCORE.RESTR>
0

>  <SCORE.RESTR.CAVITY>
0

>  <SCORE.RESTR.norm>
0

>  <SCORE.SYSTEM>
-6.88049

>  <SCORE.SYSTEM.CONST>
0

>  <SCORE.SYSTEM.DIHEDRAL>
5.0972

>  <SCORE.SYSTEM.POLAR>
-3.59347

>  <SCORE.SYSTEM.VDW>
2.78872

>  <SCORE.SYSTEM.norm>
-0.254833

>  <SCORE.heavy>
27

>  <SCORE.norm>
-12.2403

$$$$
F2200-0525
  rDOCK(R)          3D
libRbt.so/2013.1/901 2013/11/27
 28 31  0  0  0  0  0  0  0  0999 V2000
  -22.5709   19.6212   -7.4410 O   0  0  0  0  0  0
  -23.9232   19.1973   -7.5958 C   0  0  0  0  0  0
  -24.3965   19.7512   -8.8846 C   0  0  0  0  0  0
  -24.4035   19.0792  -10.0918 C   0  0  0  0  0  0
  -24.8624   19.8586  -11.0777 N   0  0  0  0  0  0
  -25.2243   20.9832  -10.5114 C   0  0  0  0  0  0
  -26.2838   21.9196  -11.5086 S   0  0  0  0  0  0
  -25.3110   22.1156  -12.9402 C   0  0  0  0  0  0
  -24.6656   20.7779  -13.7988 C   0  0  0  0  0  0
  -22.9461   19.7447  -13.6170 C   0  0  0  0  0  0
  -21.6507   19.2976  -12.2951 Cl  0  0  0  0  0  0
  -22.3954   18.6954  -14.9959 C   0  0  0  0  0  0
  -23.3760   18.6843  -16.4676 C   0  0  0  0  0  0
  -23.0746   17.4773  -17.6668 Cl  0  0  0  0  0  0
  -24.8670   19.6319  -16.6539 C   0  0  0  0  0  0
  -25.5461   20.6461  -15.3838 C   0  0  0  0  0  0
  -24.9015   21.0552   -9.1444 N   0  0  0  0  0  0
  -24.8370   22.2101   -8.1248 C   0  0  0  0  0  0
  -24.2779   23.6558   -8.4871 C   0  0  0  0  0  0
  -24.9494   24.0737  -10.0842 C   0  0  0  0  0  0
  -23.7964   24.9699  -11.4417 C   0  0  0  0  0  0
  -22.1735   25.4423  -11.0290 C   0  0  0  0  0  0
  -21.8492   26.5745  -11.7488 O   0  0  0  0  0  0
  -23.0519   26.8270  -12.5354 C   0  0  0  0  0  0
  -24.0248   25.7474  -12.6038 O   0  0  0  0  0  0
  -21.5867   25.0875   -9.4214 C   0  0  0  0  0  0
  -22.6196   24.2885   -8.1515 C   0  0  0  0  0  0
  -22.3011   19.4464   -6.5264 H   0  0  0  0  0  0
  1  2  1  0  0  0
  1 28  1  0  0  0
  2  3  1  0  0  0
  3  4  2  0  0  0
  3 17  1  0  0  0
  4  5  1  0  0  0
  5  6  2  0  0  0
  6  7  1  0  0  0
  6 17  1  0  0  0
  7  8  1  0  0  0
  8  9  1  0  0  0
  9 10  2  0  0  0
  9 16  1  0  0  0
 10 11  1  0  0  0
 10 12  1  0  0  0
 12 13  2  0  0  0
 13 14  1  0  0  0
 13 15  1  0  0  0
 15 16  2  0  0  0
 17 18  1  0  0  0
 18 19  1  0  0  0
 19 20  2  0  0  0
 19 27  1  0  0  0
 20 21  1  0  0  0
 21 22  2  0  0  0
 21 25  1  0  0  0
 22 23  1  0  0  0
 22 26  1  0  0  0
 23 24  1  0  0  0
 24 25  1  0  0  0
 26 27  2  0  0  0
M  END
>  <CHROM.0>
-53.55822616,-157.70838639,-35.12374578,66.65750043,-29.77161217,-52.60524765
-147.65326639,-175.81169721

>  <CHROM.1>
167.39429197,95.74039791,-57.47539115,55.78027477,-88.54192006,129.96041565
43.04195059,-23.77321624,21.44980904,-11.91367508,1.72210525,1.49206463,0.72859925

>  <Name>
F2200-0525

>  <RI>
3.89717e+07

>  <Rbt.Current_Directory>
/home/adria/Escritorio/rDock_CMTR_LC/2pxcA_model/inputs_sah

>  <Rbt.Executable>
rbdock ($Id: //depot/dev/client3/rdock/2013.1/src/exe/rbdock.cxx#4 $)

>  <Rbt.Library>
libRbt.so (2013.1, Build901 2013/11/27)

>  <Rbt.Parameter_File>
/home/adria/Escritorio/rDock_2013.1_src/data/scripts/dock.prm

>  <Rbt.Receptor>
sah_rdock.prm

>  <SCORE>
-316.103

>  <SCORE.INTER>
-10.0532

>  <SCORE.INTER.CONST>
1

>  <SCORE.INTER.POLAR>
-2.42804

>  <SCORE.INTER.REPUL>
0.492515

>  <SCORE.INTER.ROT>
6

>  <SCORE.INTER.VDW>
-15.6605

>  <SCORE.INTER.norm>
-0.372342

>  <SCORE.INTRA>
-301.761

>  <SCORE.INTRA.DIHEDRAL>
2.17595

>  <SCORE.INTRA.DIHEDRAL.0>
5.07698

>  <SCORE.INTRA.POLAR>
0

>  <SCORE.INTRA.POLAR.0>
0

>  <SCORE.INTRA.REPUL>
0

>  <SCORE.INTRA.REPUL.0>
0

>  <SCORE.INTRA.VDW>
-302.849

>  <SCORE.INTRA.VDW.0>
300.544

>  <SCORE.INTRA.norm>
-11.1763

>  <SCORE.RESTR>
0

>  <SCORE.RESTR.CAVITY>
0

>  <SCORE.RESTR.norm>
0

>  <SCORE.SYSTEM>
-4.28887

>  <SCORE.SYSTEM.CONST>
0

>  <SCORE.SYSTEM.DIHEDRAL>
9.75063

>  <SCORE.SYSTEM.POLAR>
-3.64871

>  <SCORE.SYSTEM.VDW>
3.24142

>  <SCORE.SYSTEM.norm>
-0.158847

>  <SCORE.heavy>
27

>  <SCORE.norm>
-11.7075

$$$$
F2200-0525
  rDOCK(R)          3D
libRbt.so/2013.1/901 2013/11/27
 28 31  0  0  0  0  0  0  0  0999 V2000
  -16.7711   20.9154  -16.0610 O   0  0  0  0  0  0
  -17.3031   19.6429  -16.4216 C   0  0  0  0  0  0
  -18.1756   19.2158  -15.3044 C   0  0  0  0  0  0
  -18.3688   19.9121  -14.1268 C   0  0  0  0  0  0
  -19.1906   19.2522  -13.3027 N   0  0  0  0  0  0
  -19.5894   18.1924  -13.9616 C   0  0  0  0  0  0
  -21.0133   17.4827  -13.2813 S   0  0  0  0  0  0
  -21.0985   18.3053  -11.7482 C   0  0  0  0  0  0
  -21.7935   19.8651  -11.5835 C   0  0  0  0  0  0
  -21.2966   21.6639  -12.3416 C   0  0  0  0  0  0
  -20.4074   22.4112  -13.8503 Cl  0  0  0  0  0  0
  -21.9815   23.1649  -11.5775 C   0  0  0  0  0  0
  -23.0102   22.9699  -10.1523 C   0  0  0  0  0  0
  -23.9305   24.3206   -9.5914 Cl  0  0  0  0  0  0
  -23.4122   21.3895   -9.4477 C   0  0  0  0  0  0
  -22.8651   19.8537  -10.1151 C   0  0  0  0  0  0
  -18.9503   18.0273  -15.2034 N   0  0  0  0  0  0
  -18.8342   16.8509  -16.1934 C   0  0  0  0  0  0
  -17.6221   16.6926  -17.2130 C   0  0  0  0  0  0
  -17.9770   15.2542  -18.2036 C   0  0  0  0  0  0
  -16.5161   13.9740  -18.6533 C   0  0  0  0  0  0
  -14.8794   14.3187  -18.1740 C   0  0  0  0  0  0
  -14.0238   13.7766  -19.1117 O   0  0  0  0  0  0
  -14.9297   13.1517  -20.0698 C   0  0  0  0  0  0
  -16.3119   12.9853  -19.6473 O   0  0  0  0  0  0
  -14.5662   15.7855  -17.2768 C   0  0  0  0  0  0
  -15.8736   16.9858  -16.8669 C   0  0  0  0  0  0
  -16.0379   21.1188  -16.6619 H   0  0  0  0  0  0
  1  2  1  0  0  0
  1 28  1  0  0  0
  2  3  1  0  0  0
  3  4  2  0  0  0
  3 17  1  0  0  0
  4  5  1  0  0  0
  5  6  2  0  0  0
  6  7  1  0  0  0
  6 17  1  0  0  0
  7  8  1  0  0  0
  8  9  1  0  0  0
  9 10  2  0  0  0
  9 16  1  0  0  0
 10 11  1  0  0  0
 10 12  1  0  0  0
 12 13  2  0  0  0
 13 14  1  0  0  0
 13 15  1  0  0  0
 15 16  2  0  0  0
 17 18  1  0  0  0
 18 19  1  0  0  0
 19 20  2  0  0  0
 19 27  1  0  0  0
 20 21  1  0  0  0
 21 22  2  0  0  0
 21 25  1  0  0  0
 22 23  1  0  0  0
 22 26  1  0  0  0
 23 24  1  0  0  0
 24 25  1  0  0  0
 26 27  2  0  0  0
M  END
>  <CHROM.0>
40.30824626,67.61670974,-128.33209667,63.73534366,-30.85948998,176.97290920
84.90419208,-162.03791315

>  <CHROM.1>
166.33793802,-2.58057422,-12.65297318,82.75846915,-63.06696971,14.69373779
-176.59960215,-19.26783501,18.81345806,-14.49178770,-0.75717855,0.74618604
0.15987406

>  <Name>
F2200-0525

>  <RI>
3.89717e+07

>  <Rbt.Current_Directory>
/home/adria/Escritorio/rDock_CMTR_LC/2pxcA_model/inputs_sah

>  <Rbt.Executable>
rbdock ($Id: //depot/dev/client3/rdock/2013.1/src/exe/rbdock.cxx#4 $)

>  <Rbt.Library>
libRbt.so (2013.1, Build901 2013/11/27)

>  <Rbt.Parameter_File>
/home/adria/Escritorio/rDock_2013.1_src/data/scripts/dock.prm

>  <Rbt.Receptor>
sah_rdock.prm

>  <SCORE>
-315.233

>  <SCORE.INTER>
-12.9672

>  <SCORE.INTER.CONST>
1

>  <SCORE.INTER.POLAR>
0

>  <SCORE.INTER.REPUL>
0.00339133

>  <SCORE.INTER.ROT>
6

>  <SCORE.INTER.VDW>
-24.3841

>  <SCORE.INTER.norm>
-0.480265

>  <SCORE.INTRA>
-300.019

>  <SCORE.INTRA.DIHEDRAL>
0.832801

>  <SCORE.INTRA.DIHEDRAL.0>
5.07698

>  <SCORE.INTRA.POLAR>
0

>  <SCORE.INTRA.POLAR.0>
0

>  <SCORE.INTRA.REPUL>
0

>  <SCORE.INTRA.REPUL.0>
0

>  <SCORE.INTRA.VDW>
-300.435

>  <SCORE.INTRA.VDW.0>
300.544

>  <SCORE.INTRA.norm>
-11.1118

>  <SCORE.RESTR>
0

>  <SCORE.RESTR.CAVITY>
0

>  <SCORE.RESTR.norm>
0

>  <SCORE.SYSTEM>
-2.24698

>  <SCORE.SYSTEM.CONST>
0

>  <SCORE.SYSTEM.DIHEDRAL>
10.7749

>  <SCORE.SYSTEM.POLAR>
-4.14571

>  <SCORE.SYSTEM.REPUL>
0.122165

>  <SCORE.SYSTEM.VDW>
5.85017

>  <SCORE.SYSTEM.norm>
-0.0832214

>  <SCORE.heavy>
27

>  <SCORE.norm>
-11.6753

$$$$
