F5057-0266
  rDOCK(R)          3D
libRbt.so/2013.1/901 2013/11/27
 27 30  0  0  0  0  0  0  0  0999 V2000
  -18.7433   15.3981  -15.3117 C   0  0  0  0  0  0
  -18.6442   16.8941  -15.3977 C   0  0  0  0  0  0
  -17.7137   17.4878  -16.2624 C   0  0  0  0  0  0
  -17.5850   18.8730  -16.3751 C   0  0  0  0  0  0
  -18.3804   19.7457  -15.6244 C   0  0  0  0  0  0
  -18.2480   21.2301  -15.7889 C   0  0  0  0  0  0
  -19.3130   19.1734  -14.7455 C   0  0  0  0  0  0
  -19.4154   17.7837  -14.6335 C   0  0  0  0  0  0
  -20.5877   17.4448  -13.4312 S   0  0  0  0  0  0
  -21.0739   19.0862  -13.4846 C   0  0  0  0  0  0
  -20.1864   19.9041  -13.9730 N   0  0  0  0  0  0
  -22.2868   19.5196  -12.9606 N   0  0  0  0  0  0
  -22.5331   21.0755  -13.0708 C   0  0  0  0  0  0
  -21.3232   22.2158  -12.9374 C   0  0  0  0  0  0
  -21.4822   23.8488  -12.9088 N   0  0  0  0  0  0
  -23.2213   24.2586  -13.3609 C   0  0  0  0  0  0
  -24.6442   24.5465  -11.5997 C   0  0  0  0  0  0
  -23.7092   25.0720  -10.1793 O   0  0  0  0  0  0
  -22.3001   24.5029   -9.9197 C   0  0  0  0  0  0
  -21.1098   24.4551  -11.3032 C   0  0  0  0  0  0
  -23.0609   18.4655  -12.4046 C   0  0  0  0  0  0
  -23.0448   17.2824  -12.7183 O   0  0  0  0  0  0
  -23.8054   18.8978  -11.3081 C   0  0  0  0  0  0
  -25.1962   19.9379  -11.4966 C   0  0  0  0  0  0
  -26.0614   20.1409   -9.5779 C   0  0  0  0  0  0
  -24.9064   19.4954   -8.4182 N   0  0  0  0  0  0
  -23.4036   18.7994   -9.4962 O   0  0  0  0  0  0
  1  2  1  0  0  0
  2  3  2  0  0  0
  2  8  1  0  0  0
  3  4  1  0  0  0
  4  5  2  0  0  0
  5  6  1  0  0  0
  5  7  1  0  0  0
  7  8  2  0  0  0
  7 11  1  0  0  0
  8  9  1  0  0  0
  9 10  1  0  0  0
 10 11  2  0  0  0
 10 12  1  0  0  0
 12 13  1  0  0  0
 12 21  1  0  0  0
 13 14  1  0  0  0
 14 15  1  0  0  0
 15 16  1  0  0  0
 15 20  1  0  0  0
 16 17  1  0  0  0
 17 18  1  0  0  0
 18 19  1  0  0  0
 19 20  1  0  0  0
 21 22  2  0  0  0
 21 23  1  0  0  0
 23 24  2  0  0  0
 23 27  1  0  0  0
 24 25  1  0  0  0
 25 26  2  0  0  0
 26 27  1  0  0  0
M  END
>  <CHROM.0>
176.00532904,-166.42827380,-47.37180778,66.45468672,-31.54761534,63.44668509
-157.00912503,-161.76718170

>  <CHROM.1>
178.34412880,-34.81804198,-174.37617501,-10.25288364,72.05998666,-21.55825551
20.13983621,-12.87710834,0.66257115,-0.71821926,-3.09524938

>  <Name>
F5057-0266

>  <RI>
2.95755e+07

>  <Rbt.Current_Directory>
/home/adria/Escritorio/rDock_CMTR_LC/2pxcA_model/inputs_sah

>  <Rbt.Executable>
rbdock ($Id: //depot/dev/client3/rdock/2013.1/src/exe/rbdock.cxx#4 $)

>  <Rbt.Library>
libRbt.so (2013.1, Build901 2013/11/27)

>  <Rbt.Parameter_File>
/home/adria/Escritorio/rDock_2013.1_src/data/scripts/dock.prm

>  <Rbt.Receptor>
sah_rdock.prm

>  <SCORE>
-223.59

>  <SCORE.INTER>
-8.75243

>  <SCORE.INTER.CONST>
1

>  <SCORE.INTER.POLAR>
-1.36695

>  <SCORE.INTER.REPUL>
0.0817668

>  <SCORE.INTER.ROT>
5

>  <SCORE.INTER.VDW>
-14.9136

>  <SCORE.INTER.norm>
-0.324164

>  <SCORE.INTRA>
-208.765

>  <SCORE.INTRA.DIHEDRAL>
3.43899

>  <SCORE.INTRA.DIHEDRAL.0>
10.8009

>  <SCORE.INTRA.POLAR>
0

>  <SCORE.INTRA.POLAR.0>
0

>  <SCORE.INTRA.REPUL>
0

>  <SCORE.INTRA.REPUL.0>
0

>  <SCORE.INTRA.VDW>
-210.485

>  <SCORE.INTRA.VDW.0>
213.041

>  <SCORE.INTRA.norm>
-7.73206

>  <SCORE.RESTR>
0

>  <SCORE.RESTR.CAVITY>
0

>  <SCORE.RESTR.norm>
0

>  <SCORE.SYSTEM>
-6.07212

>  <SCORE.SYSTEM.CONST>
0

>  <SCORE.SYSTEM.DIHEDRAL>
6.49492

>  <SCORE.SYSTEM.POLAR>
-3.69648

>  <SCORE.SYSTEM.VDW>
3.24847

>  <SCORE.SYSTEM.norm>
-0.224893

>  <SCORE.heavy>
27

>  <SCORE.norm>
-8.28111

$$$$
F5057-0266
  rDOCK(R)          3D
libRbt.so/2013.1/901 2013/11/27
 27 30  0  0  0  0  0  0  0  0999 V2000
  -17.0377   19.8956  -15.9485 C   0  0  0  0  0  0
  -18.1787   19.1464  -15.3223 C   0  0  0  0  0  0
  -18.1408   17.7471  -15.2432 C   0  0  0  0  0  0
  -19.1778   17.0085  -14.6711 C   0  0  0  0  0  0
  -20.3167   17.6298  -14.1470 C   0  0  0  0  0  0
  -21.4014   16.8172  -13.5058 C   0  0  0  0  0  0
  -20.3801   19.0298  -14.2233 C   0  0  0  0  0  0
  -19.3395   19.7513  -14.8155 C   0  0  0  0  0  0
  -19.7813   21.4063  -14.8007 S   0  0  0  0  0  0
  -21.0505   21.0273  -13.7149 C   0  0  0  0  0  0
  -21.4181   19.7784  -13.7175 N   0  0  0  0  0  0
  -21.6971   21.9990  -12.9591 N   0  0  0  0  0  0
  -22.9774   21.4892  -12.1879 C   0  0  0  0  0  0
  -23.4653   22.0857  -10.7087 C   0  0  0  0  0  0
  -24.6855   21.5369   -9.7586 N   0  0  0  0  0  0
  -26.2332   21.5459  -10.7592 C   0  0  0  0  0  0
  -26.7479   19.5685  -11.7763 C   0  0  0  0  0  0
  -26.0338   18.2329  -10.8412 O   0  0  0  0  0  0
  -24.6520   18.3976  -10.1777 C   0  0  0  0  0  0
  -24.3246   19.9090   -9.2072 C   0  0  0  0  0  0
  -21.0812   23.2764  -13.0511 C   0  0  0  0  0  0
  -19.9047   23.5224  -13.2825 O   0  0  0  0  0  0
  -22.0183   24.3056  -12.9731 C   0  0  0  0  0  0
  -21.6890   25.7813  -12.0980 C   0  0  0  0  0  0
  -23.3331   27.0656  -12.4419 C   0  0  0  0  0  0
  -24.6006   26.0967  -13.1839 N   0  0  0  0  0  0
  -23.8205   24.2975  -13.4268 O   0  0  0  0  0  0
  1  2  1  0  0  0
  2  3  2  0  0  0
  2  8  1  0  0  0
  3  4  1  0  0  0
  4  5  2  0  0  0
  5  6  1  0  0  0
  5  7  1  0  0  0
  7  8  2  0  0  0
  7 11  1  0  0  0
  8  9  1  0  0  0
  9 10  1  0  0  0
 10 11  2  0  0  0
 10 12  1  0  0  0
 12 13  1  0  0  0
 12 21  1  0  0  0
 13 14  1  0  0  0
 14 15  1  0  0  0
 15 16  1  0  0  0
 15 20  1  0  0  0
 16 17  1  0  0  0
 17 18  1  0  0  0
 18 19  1  0  0  0
 19 20  1  0  0  0
 21 22  2  0  0  0
 21 23  1  0  0  0
 23 24  2  0  0  0
 23 27  1  0  0  0
 24 25  1  0  0  0
 25 26  2  0  0  0
 26 27  1  0  0  0
M  END
>  <CHROM.0>
-59.05118035,62.35066627,73.29534406,63.45316435,-29.96471589,-179.66581771
83.23158627,-163.17902468

>  <CHROM.1>
171.11298831,147.34656569,-173.68072099,-55.83853578,141.02409258,-21.95776394
21.07477406,-12.96689751,-0.49133856,0.58194144,-0.04618091

>  <Name>
F5057-0266

>  <RI>
2.95755e+07

>  <Rbt.Current_Directory>
/home/adria/Escritorio/rDock_CMTR_LC/2pxcA_model/inputs_sah

>  <Rbt.Executable>
rbdock ($Id: //depot/dev/client3/rdock/2013.1/src/exe/rbdock.cxx#4 $)

>  <Rbt.Library>
libRbt.so (2013.1, Build901 2013/11/27)

>  <Rbt.Parameter_File>
/home/adria/Escritorio/rDock_2013.1_src/data/scripts/dock.prm

>  <Rbt.Receptor>
sah_rdock.prm

>  <SCORE>
-229.193

>  <SCORE.INTER>
-7.19938

>  <SCORE.INTER.CONST>
1

>  <SCORE.INTER.POLAR>
-0.723002

>  <SCORE.INTER.REPUL>
0.065824

>  <SCORE.INTER.ROT>
5

>  <SCORE.INTER.VDW>
-15.4703

>  <SCORE.INTER.norm>
-0.266644

>  <SCORE.INTRA>
-214.661

>  <SCORE.INTRA.DIHEDRAL>
-4.89523

>  <SCORE.INTRA.DIHEDRAL.0>
10.8009

>  <SCORE.INTRA.POLAR>
0

>  <SCORE.INTRA.POLAR.0>
0

>  <SCORE.INTRA.REPUL>
0

>  <SCORE.INTRA.REPUL.0>
0

>  <SCORE.INTRA.VDW>
-212.213

>  <SCORE.INTRA.VDW.0>
213.041

>  <SCORE.INTRA.norm>
-7.9504

>  <SCORE.RESTR>
0

>  <SCORE.RESTR.CAVITY>
0

>  <SCORE.RESTR.norm>
0

>  <SCORE.SYSTEM>
-7.33318

>  <SCORE.SYSTEM.CONST>
0

>  <SCORE.SYSTEM.DIHEDRAL>
5.69348

>  <SCORE.SYSTEM.POLAR>
-3.74709

>  <SCORE.SYSTEM.VDW>
2.5602

>  <SCORE.SYSTEM.norm>
-0.271599

>  <SCORE.heavy>
27

>  <SCORE.norm>
-8.48864

$$$$
F5057-0266
  rDOCK(R)          3D
libRbt.so/2013.1/901 2013/11/27
 27 30  0  0  0  0  0  0  0  0999 V2000
  -17.2201   19.0625  -15.3962 C   0  0  0  0  0  0
  -18.6769   18.6995  -15.3570 C   0  0  0  0  0  0
  -19.1023   17.4499  -15.8292 C   0  0  0  0  0  0
  -20.4450   17.0692  -15.8137 C   0  0  0  0  0  0
  -21.4420   17.9214  -15.3260 C   0  0  0  0  0  0
  -22.8732   17.4762  -15.2870 C   0  0  0  0  0  0
  -21.0401   19.1812  -14.8560 C   0  0  0  0  0  0
  -19.6926   19.5514  -14.8957 C   0  0  0  0  0  0
  -19.5792   21.1605  -14.3190 S   0  0  0  0  0  0
  -21.1889   21.0377  -13.7472 C   0  0  0  0  0  0
  -21.9016   20.1076  -14.3146 N   0  0  0  0  0  0
  -21.7164   21.9249  -12.8155 N   0  0  0  0  0  0
  -23.2934   22.0086  -12.8056 C   0  0  0  0  0  0
  -24.1538   23.3247  -13.3619 C   0  0  0  0  0  0
  -25.7817   23.5316  -13.3629 N   0  0  0  0  0  0
  -26.5641   21.8823  -13.6169 C   0  0  0  0  0  0
  -27.1637   20.7836  -11.7083 C   0  0  0  0  0  0
  -27.4734   21.9777  -10.4253 O   0  0  0  0  0  0
  -26.6079   23.2490  -10.3183 C   0  0  0  0  0  0
  -26.2949   24.2214  -11.8315 C   0  0  0  0  0  0
  -20.7178   22.6027  -12.0653 C   0  0  0  0  0  0
  -19.5890   22.2103  -11.8003 O   0  0  0  0  0  0
  -21.1132   23.8983  -11.7359 C   0  0  0  0  0  0
  -21.2876   24.4095  -10.0746 C   0  0  0  0  0  0
  -21.7173   26.4792  -10.1229 C   0  0  0  0  0  0
  -22.0926   26.8914  -11.7917 N   0  0  0  0  0  0
  -21.8247   25.2272  -12.8230 O   0  0  0  0  0  0
  1  2  1  0  0  0
  2  3  2  0  0  0
  2  8  1  0  0  0
  3  4  1  0  0  0
  4  5  2  0  0  0
  5  6  1  0  0  0
  5  7  1  0  0  0
  7  8  2  0  0  0
  7 11  1  0  0  0
  8  9  1  0  0  0
  9 10  1  0  0  0
 10 11  2  0  0  0
 10 12  1  0  0  0
 12 13  1  0  0  0
 12 21  1  0  0  0
 13 14  1  0  0  0
 14 15  1  0  0  0
 15 16  1  0  0  0
 15 20  1  0  0  0
 16 17  1  0  0  0
 17 18  1  0  0  0
 18 19  1  0  0  0
 19 20  1  0  0  0
 21 22  2  0  0  0
 21 23  1  0  0  0
 23 24  2  0  0  0
 23 27  1  0  0  0
 24 25  1  0  0  0
 25 26  2  0  0  0
 26 27  1  0  0  0
M  END
>  <CHROM.0>
-63.94109376,-74.94003025,-129.66175688,63.13397554,-31.74149772,-61.92403850
82.45933533,-164.34757522

>  <CHROM.1>
158.34833491,-108.85720996,-178.30224033,-33.21943953,118.53367879,-22.19631118
21.63635394,-13.19183373,-0.86156843,0.15722697,0.49204999

>  <Name>
F5057-0266

>  <RI>
2.95755e+07

>  <Rbt.Current_Directory>
/home/adria/Escritorio/rDock_CMTR_LC/2pxcA_model/inputs_sah

>  <Rbt.Executable>
rbdock ($Id: //depot/dev/client3/rdock/2013.1/src/exe/rbdock.cxx#4 $)

>  <Rbt.Library>
libRbt.so (2013.1, Build901 2013/11/27)

>  <Rbt.Parameter_File>
/home/adria/Escritorio/rDock_2013.1_src/data/scripts/dock.prm

>  <Rbt.Receptor>
sah_rdock.prm

>  <SCORE>
-230.856

>  <SCORE.INTER>
-12.6828

>  <SCORE.INTER.CONST>
1

>  <SCORE.INTER.POLAR>
-2.1866

>  <SCORE.INTER.REPUL>
0.187795

>  <SCORE.INTER.ROT>
5

>  <SCORE.INTER.VDW>
-16.5873

>  <SCORE.INTER.norm>
-0.469733

>  <SCORE.INTRA>
-211.134

>  <SCORE.INTRA.DIHEDRAL>
4.99639

>  <SCORE.INTRA.DIHEDRAL.0>
10.8009

>  <SCORE.INTRA.POLAR>
0

>  <SCORE.INTRA.POLAR.0>
0

>  <SCORE.INTRA.REPUL>
0

>  <SCORE.INTRA.REPUL.0>
0

>  <SCORE.INTRA.VDW>
-213.632

>  <SCORE.INTRA.VDW.0>
213.041

>  <SCORE.INTRA.norm>
-7.81977

>  <SCORE.RESTR>
0.0636571

>  <SCORE.RESTR.CAVITY>
0.0636571

>  <SCORE.RESTR.norm>
0.00235767

>  <SCORE.SYSTEM>
-7.10283

>  <SCORE.SYSTEM.CONST>
0

>  <SCORE.SYSTEM.DIHEDRAL>
9.28398

>  <SCORE.SYSTEM.POLAR>
-4.5134

>  <SCORE.SYSTEM.REPUL>
0.0418144

>  <SCORE.SYSTEM.VDW>
3.39166

>  <SCORE.SYSTEM.norm>
-0.263068

>  <SCORE.heavy>
27

>  <SCORE.norm>
-8.55021

$$$$
F5057-0266
  rDOCK(R)          3D
libRbt.so/2013.1/901 2013/11/27
 27 30  0  0  0  0  0  0  0  0999 V2000
  -18.6874   15.1506  -15.8192 C   0  0  0  0  0  0
  -18.3319   16.6074  -15.9002 C   0  0  0  0  0  0
  -17.3715   17.0457  -16.8227 C   0  0  0  0  0  0
  -17.0082   18.3888  -16.9332 C   0  0  0  0  0  0
  -17.5850   19.3724  -16.1221 C   0  0  0  0  0  0
  -17.2041   20.8135  -16.2837 C   0  0  0  0  0  0
  -18.5428   18.9551  -15.1850 C   0  0  0  0  0  0
  -18.8810   17.6030  -15.0772 C   0  0  0  0  0  0
  -20.0115   17.4511  -13.7990 S   0  0  0  0  0  0
  -20.2029   19.1531  -13.8055 C   0  0  0  0  0  0
  -19.2198   19.8121  -14.3479 N   0  0  0  0  0  0
  -21.2824   19.7819  -13.1950 N   0  0  0  0  0  0
  -21.2814   21.3565  -13.3159 C   0  0  0  0  0  0
  -20.4738   22.3652  -12.2613 C   0  0  0  0  0  0
  -20.5043   24.0054  -12.2199 N   0  0  0  0  0  0
  -22.2181   24.5314  -11.7919 C   0  0  0  0  0  0
  -22.5922   24.9238   -9.5749 C   0  0  0  0  0  0
  -21.0582   25.3901   -8.8021 O   0  0  0  0  0  0
  -19.7350   24.7269   -9.2334 C   0  0  0  0  0  0
  -19.3674   24.5917  -11.0166 C   0  0  0  0  0  0
  -22.1688   18.8720  -12.5582 C   0  0  0  0  0  0
  -22.3705   17.7001  -12.8486 O   0  0  0  0  0  0
  -22.7410   19.4271  -11.4145 C   0  0  0  0  0  0
  -23.9915   18.5979  -10.5198 C   0  0  0  0  0  0
  -24.3750   19.7641   -8.7983 C   0  0  0  0  0  0
  -23.5732   21.3127   -9.0327 N   0  0  0  0  0  0
  -22.6167   21.1602  -10.7550 O   0  0  0  0  0  0
  1  2  1  0  0  0
  2  3  2  0  0  0
  2  8  1  0  0  0
  3  4  1  0  0  0
  4  5  2  0  0  0
  5  6  1  0  0  0
  5  7  1  0  0  0
  7  8  2  0  0  0
  7 11  1  0  0  0
  8  9  1  0  0  0
  9 10  1  0  0  0
 10 11  2  0  0  0
 10 12  1  0  0  0
 12 13  1  0  0  0
 12 21  1  0  0  0
 13 14  1  0  0  0
 14 15  1  0  0  0
 15 16  1  0  0  0
 15 20  1  0  0  0
 16 17  1  0  0  0
 17 18  1  0  0  0
 18 19  1  0  0  0
 19 20  1  0  0  0
 21 22  2  0  0  0
 21 23  1  0  0  0
 23 24  2  0  0  0
 23 27  1  0  0  0
 24 25  1  0  0  0
 25 26  2  0  0  0
 26 27  1  0  0  0
M  END
>  <CHROM.0>
-175.44687827,-73.51214182,76.16268254,65.35147532,-31.16952746,-58.43578094
-156.25983577,-161.97758516

>  <CHROM.1>
-179.76953305,-85.74794035,-174.57731652,64.89176292,173.73594085,-20.50753564
20.28193807,-12.84018806,1.03058476,-0.70238746,-2.73786022

>  <Name>
F5057-0266

>  <RI>
2.95755e+07

>  <Rbt.Current_Directory>
/home/adria/Escritorio/rDock_CMTR_LC/2pxcA_model/inputs_sah

>  <Rbt.Executable>
rbdock ($Id: //depot/dev/client3/rdock/2013.1/src/exe/rbdock.cxx#4 $)

>  <Rbt.Library>
libRbt.so (2013.1, Build901 2013/11/27)

>  <Rbt.Parameter_File>
/home/adria/Escritorio/rDock_2013.1_src/data/scripts/dock.prm

>  <Rbt.Receptor>
sah_rdock.prm

>  <SCORE>
-230.091

>  <SCORE.INTER>
-7.05853

>  <SCORE.INTER.CONST>
1

>  <SCORE.INTER.POLAR>
0

>  <SCORE.INTER.REPUL>
0.0668491

>  <SCORE.INTER.ROT>
5

>  <SCORE.INTER.VDW>
-17.7928

>  <SCORE.INTER.norm>
-0.261427

>  <SCORE.INTRA>
-215.511

>  <SCORE.INTRA.DIHEDRAL>
-9.0726

>  <SCORE.INTRA.DIHEDRAL.0>
10.8009

>  <SCORE.INTRA.POLAR>
0

>  <SCORE.INTRA.POLAR.0>
0

>  <SCORE.INTRA.REPUL>
0

>  <SCORE.INTRA.REPUL.0>
0

>  <SCORE.INTRA.VDW>
-210.974

>  <SCORE.INTRA.VDW.0>
213.041

>  <SCORE.INTRA.norm>
-7.98187

>  <SCORE.RESTR>
0

>  <SCORE.RESTR.CAVITY>
0

>  <SCORE.RESTR.norm>
0

>  <SCORE.SYSTEM>
-7.52241

>  <SCORE.SYSTEM.CONST>
0

>  <SCORE.SYSTEM.DIHEDRAL>
6.77913

>  <SCORE.SYSTEM.POLAR>
-4.13152

>  <SCORE.SYSTEM.REPUL>
0.0394373

>  <SCORE.SYSTEM.VDW>
2.93801

>  <SCORE.SYSTEM.norm>
-0.278608

>  <SCORE.heavy>
27

>  <SCORE.norm>
-8.52191

$$$$
F5057-0266
  rDOCK(R)          3D
libRbt.so/2013.1/901 2013/11/27
 27 30  0  0  0  0  0  0  0  0999 V2000
  -25.5534   18.7254  -16.9701 C   0  0  0  0  0  0
  -24.3904   18.6167  -16.0262 C   0  0  0  0  0  0
  -23.3933   17.6563  -16.2480 C   0  0  0  0  0  0
  -22.2952   17.5177  -15.3977 C   0  0  0  0  0  0
  -22.1335   18.3327  -14.2718 C   0  0  0  0  0  0
  -20.9272   18.1882  -13.3931 C   0  0  0  0  0  0
  -23.1243   19.2955  -14.0252 C   0  0  0  0  0  0
  -24.2259   19.4078  -14.8785 C   0  0  0  0  0  0
  -25.2552   20.6196  -14.2406 S   0  0  0  0  0  0
  -23.9919   21.0962  -13.1868 C   0  0  0  0  0  0
  -23.0804   20.1898  -12.9803 N   0  0  0  0  0  0
  -23.9928   22.3232  -12.5327 N   0  0  0  0  0  0
  -25.1715   23.2891  -12.9468 C   0  0  0  0  0  0
  -26.2212   23.9889  -11.8559 C   0  0  0  0  0  0
  -27.1047   23.2413  -10.6924 N   0  0  0  0  0  0
  -26.7334   21.4377  -10.7678 C   0  0  0  0  0  0
  -25.0987   20.7188   -9.3464 C   0  0  0  0  0  0
  -25.0276   21.8131   -7.9445 O   0  0  0  0  0  0
  -25.2508   23.3277   -8.1258 C   0  0  0  0  0  0
  -26.6796   23.8867   -9.1154 C   0  0  0  0  0  0
  -22.9071   22.4721  -11.6279 C   0  0  0  0  0  0
  -22.3050   21.5877  -11.0332 O   0  0  0  0  0  0
  -22.4704   23.7944  -11.5624 C   0  0  0  0  0  0
  -21.4412   24.3571  -10.2677 C   0  0  0  0  0  0
  -20.9258   26.3544  -10.7323 C   0  0  0  0  0  0
  -21.9723   26.8659  -12.0510 N   0  0  0  0  0  0
  -23.0500   25.2776  -12.5206 O   0  0  0  0  0  0
  1  2  1  0  0  0
  2  3  2  0  0  0
  2  8  1  0  0  0
  3  4  1  0  0  0
  4  5  2  0  0  0
  5  6  1  0  0  0
  5  7  1  0  0  0
  7  8  2  0  0  0
  7 11  1  0  0  0
  8  9  1  0  0  0
  9 10  1  0  0  0
 10 11  2  0  0  0
 10 12  1  0  0  0
 12 13  1  0  0  0
 12 21  1  0  0  0
 13 14  1  0  0  0
 14 15  1  0  0  0
 15 16  1  0  0  0
 15 20  1  0  0  0
 16 17  1  0  0  0
 17 18  1  0  0  0
 18 19  1  0  0  0
 19 20  1  0  0  0
 21 22  2  0  0  0
 21 23  1  0  0  0
 23 24  2  0  0  0
 23 27  1  0  0  0
 24 25  1  0  0  0
 25 26  2  0  0  0
 26 27  1  0  0  0
M  END
>  <CHROM.0>
-57.47105028,-169.26100568,117.75370922,151.80543093,32.29836047,-60.35842387
81.58789909,-165.25845444

>  <CHROM.1>
-5.65706752,126.24465659,-52.36709963,0.53008570,164.41680267,-23.97292892
21.64426341,-12.41546998,1.49605765,-0.44146068,-2.44274135

>  <Name>
F5057-0266

>  <RI>
2.95755e+07

>  <Rbt.Current_Directory>
/home/adria/Escritorio/rDock_CMTR_LC/2pxcA_model/inputs_sah

>  <Rbt.Executable>
rbdock ($Id: //depot/dev/client3/rdock/2013.1/src/exe/rbdock.cxx#4 $)

>  <Rbt.Library>
libRbt.so (2013.1, Build901 2013/11/27)

>  <Rbt.Parameter_File>
/home/adria/Escritorio/rDock_2013.1_src/data/scripts/dock.prm

>  <Rbt.Receptor>
sah_rdock.prm

>  <SCORE>
-221.493

>  <SCORE.INTER>
-13.456

>  <SCORE.INTER.CONST>
1

>  <SCORE.INTER.POLAR>
-2.71734

>  <SCORE.INTER.REPUL>
0.157938

>  <SCORE.INTER.ROT>
5

>  <SCORE.INTER.VDW>
-15.4068

>  <SCORE.INTER.norm>
-0.498371

>  <SCORE.INTRA>
-217.543

>  <SCORE.INTRA.DIHEDRAL>
-6.13288

>  <SCORE.INTRA.DIHEDRAL.0>
10.8009

>  <SCORE.INTRA.POLAR>
0

>  <SCORE.INTRA.POLAR.0>
0

>  <SCORE.INTRA.REPUL>
0

>  <SCORE.INTRA.REPUL.0>
0

>  <SCORE.INTRA.VDW>
-214.476

>  <SCORE.INTRA.VDW.0>
213.041

>  <SCORE.INTRA.norm>
-8.05713

>  <SCORE.RESTR>
0

>  <SCORE.RESTR.CAVITY>
0

>  <SCORE.RESTR.norm>
0

>  <SCORE.SYSTEM>
9.50547

>  <SCORE.SYSTEM.CONST>
0

>  <SCORE.SYSTEM.DIHEDRAL>
11.945

>  <SCORE.SYSTEM.POLAR>
-3.87855

>  <SCORE.SYSTEM.VDW>
16.72

>  <SCORE.SYSTEM.norm>
0.352054

>  <SCORE.heavy>
27

>  <SCORE.norm>
-8.20345

$$$$
F5057-0266
  rDOCK(R)          3D
libRbt.so/2013.1/901 2013/11/27
 27 30  0  0  0  0  0  0  0  0999 V2000
  -17.2524   18.9131  -15.4033 C   0  0  0  0  0  0
  -18.7256   18.6218  -15.4123 C   0  0  0  0  0  0
  -19.2013   17.4238  -15.9639 C   0  0  0  0  0  0
  -20.5610   17.1104  -15.9954 C   0  0  0  0  0  0
  -21.5255   17.9823  -15.4781 C   0  0  0  0  0  0
  -22.9772   17.6078  -15.4917 C   0  0  0  0  0  0
  -21.0727   19.1918  -14.9287 C   0  0  0  0  0  0
  -19.7083   19.4958  -14.9218 C   0  0  0  0  0  0
  -19.5288   21.0619  -14.2511 S   0  0  0  0  0  0
  -21.1546   20.9874  -13.7175 C   0  0  0  0  0  0
  -21.8995   20.1278  -14.3509 N   0  0  0  0  0  0
  -21.6581   21.8456  -12.7461 N   0  0  0  0  0  0
  -23.2324   21.9684  -12.7284 C   0  0  0  0  0  0
  -24.1994   21.3012  -11.5445 C   0  0  0  0  0  0
  -25.8107   21.5201  -11.3237 N   0  0  0  0  0  0
  -26.2546   20.8437   -9.6677 C   0  0  0  0  0  0
  -26.2781   22.3660   -7.9673 C   0  0  0  0  0  0
  -26.6164   23.9793   -8.6387 O   0  0  0  0  0  0
  -26.0366   24.3916  -10.0064 C   0  0  0  0  0  0
  -26.1957   23.2316  -11.4072 C   0  0  0  0  0  0
  -20.6416   22.4642  -11.9694 C   0  0  0  0  0  0
  -19.5226   22.0322  -11.7249 O   0  0  0  0  0  0
  -21.0035   23.7535  -11.5821 C   0  0  0  0  0  0
  -20.3365   24.5028  -10.1519 C   0  0  0  0  0  0
  -21.0575   26.4902  -10.1207 C   0  0  0  0  0  0
  -22.3344   26.5969  -11.3264 N   0  0  0  0  0  0
  -22.3954   24.8224  -12.1938 O   0  0  0  0  0  0
  1  2  1  0  0  0
  2  3  2  0  0  0
  2  8  1  0  0  0
  3  4  1  0  0  0
  4  5  2  0  0  0
  5  6  1  0  0  0
  5  7  1  0  0  0
  7  8  2  0  0  0
  7 11  1  0  0  0
  8  9  1  0  0  0
  9 10  1  0  0  0
 10 11  2  0  0  0
 10 12  1  0  0  0
 12 13  1  0  0  0
 12 21  1  0  0  0
 13 14  1  0  0  0
 14 15  1  0  0  0
 15 16  1  0  0  0
 15 20  1  0  0  0
 16 17  1  0  0  0
 17 18  1  0  0  0
 18 19  1  0  0  0
 19 20  1  0  0  0
 21 22  2  0  0  0
 21 23  1  0  0  0
 23 24  2  0  0  0
 23 27  1  0  0  0
 24 25  1  0  0  0
 25 26  2  0  0  0
 26 27  1  0  0  0
M  END
>  <CHROM.0>
-171.22853942,-167.42661297,73.37058088,65.29902642,-31.42808041,-58.66530948
-156.71454131,-159.88291642

>  <CHROM.1>
160.37564714,107.51372595,171.73144052,-167.76473652,154.45215712,-22.07393652
21.54261458,-12.63875133,-0.91576134,0.36048835,0.54281204

>  <Name>
F5057-0266

>  <RI>
2.95755e+07

>  <Rbt.Current_Directory>
/home/adria/Escritorio/rDock_CMTR_LC/2pxcA_model/inputs_sah

>  <Rbt.Executable>
rbdock ($Id: //depot/dev/client3/rdock/2013.1/src/exe/rbdock.cxx#4 $)

>  <Rbt.Library>
libRbt.so (2013.1, Build901 2013/11/27)

>  <Rbt.Parameter_File>
/home/adria/Escritorio/rDock_2013.1_src/data/scripts/dock.prm

>  <Rbt.Receptor>
sah_rdock.prm

>  <SCORE>
-232.562

>  <SCORE.INTER>
-11.8128

>  <SCORE.INTER.CONST>
1

>  <SCORE.INTER.POLAR>
-1.80705

>  <SCORE.INTER.REPUL>
0.0127772

>  <SCORE.INTER.ROT>
5

>  <SCORE.INTER.VDW>
-16.1327

>  <SCORE.INTER.norm>
-0.43751

>  <SCORE.INTRA>
-214.555

>  <SCORE.INTRA.DIHEDRAL>
-2.94261

>  <SCORE.INTRA.DIHEDRAL.0>
10.8009

>  <SCORE.INTRA.POLAR>
0

>  <SCORE.INTRA.POLAR.0>
0

>  <SCORE.INTRA.REPUL>
0

>  <SCORE.INTRA.REPUL.0>
0

>  <SCORE.INTRA.VDW>
-213.084

>  <SCORE.INTRA.VDW.0>
213.041

>  <SCORE.INTRA.norm>
-7.94648

>  <SCORE.RESTR>
0

>  <SCORE.RESTR.CAVITY>
0

>  <SCORE.RESTR.norm>
0

>  <SCORE.SYSTEM>
-6.19395

>  <SCORE.SYSTEM.CONST>
0

>  <SCORE.SYSTEM.DIHEDRAL>
6.77012

>  <SCORE.SYSTEM.POLAR>
-3.79073

>  <SCORE.SYSTEM.VDW>
3.30946

>  <SCORE.SYSTEM.norm>
-0.229405

>  <SCORE.heavy>
27

>  <SCORE.norm>
-8.6134

$$$$
F5057-0266
  rDOCK(R)          3D
libRbt.so/2013.1/901 2013/11/27
 27 30  0  0  0  0  0  0  0  0999 V2000
  -14.1781   20.5102  -17.1715 C   0  0  0  0  0  0
  -15.0225   19.2933  -17.4196 C   0  0  0  0  0  0
  -14.5228   18.2381  -18.1959 C   0  0  0  0  0  0
  -15.2710   17.0885  -18.4540 C   0  0  0  0  0  0
  -16.5671   16.9302  -17.9510 C   0  0  0  0  0  0
  -17.3378   15.6709  -18.2126 C   0  0  0  0  0  0
  -17.0912   17.9780  -17.1783 C   0  0  0  0  0  0
  -16.3332   19.1292  -16.9450 C   0  0  0  0  0  0
  -17.3017   20.2135  -16.0389 S   0  0  0  0  0  0
  -18.4040   18.9362  -15.7443 C   0  0  0  0  0  0
  -18.3340   17.9475  -16.5884 N   0  0  0  0  0  0
  -19.3599   18.9971  -14.7364 N   0  0  0  0  0  0
  -20.5062   17.9168  -14.8501 C   0  0  0  0  0  0
  -21.3877   17.3622  -13.5473 C   0  0  0  0  0  0
  -22.7754   16.4867  -13.5745 N   0  0  0  0  0  0
  -23.6762   16.8001  -11.9974 C   0  0  0  0  0  0
  -25.2524   18.4483  -12.0862 C   0  0  0  0  0  0
  -25.8494   18.5897  -13.7570 O   0  0  0  0  0  0
  -24.8860   18.4086  -14.9468 C   0  0  0  0  0  0
  -23.7588   16.9724  -14.9461 C   0  0  0  0  0  0
  -19.1227   20.0459  -13.8073 C   0  0  0  0  0  0
  -18.0476   20.5495  -13.5092 O   0  0  0  0  0  0
  -20.3145   20.5784  -13.3180 C   0  0  0  0  0  0
  -20.3523   21.5800  -11.8872 C   0  0  0  0  0  0
  -22.3411   22.2695  -11.6864 C   0  0  0  0  0  0
  -23.3286   21.3338  -12.8022 N   0  0  0  0  0  0
  -22.0677   20.1634  -13.7744 O   0  0  0  0  0  0
  1  2  1  0  0  0
  2  3  2  0  0  0
  2  8  1  0  0  0
  3  4  1  0  0  0
  4  5  2  0  0  0
  5  6  1  0  0  0
  5  7  1  0  0  0
  7  8  2  0  0  0
  7 11  1  0  0  0
  8  9  1  0  0  0
  9 10  1  0  0  0
 10 11  2  0  0  0
 10 12  1  0  0  0
 12 13  1  0  0  0
 12 21  1  0  0  0
 13 14  1  0  0  0
 14 15  1  0  0  0
 15 16  1  0  0  0
 15 20  1  0  0  0
 16 17  1  0  0  0
 17 18  1  0  0  0
 18 19  1  0  0  0
 19 20  1  0  0  0
 21 22  2  0  0  0
 21 23  1  0  0  0
 23 24  2  0  0  0
 23 27  1  0  0  0
 24 25  1  0  0  0
 25 26  2  0  0  0
 26 27  1  0  0  0
M  END
>  <CHROM.0>
-62.10445041,67.50327483,74.46783924,-59.36716086,-32.61730555,-179.52363361
81.09474462,-163.89424590

>  <CHROM.1>
165.02340197,154.70043613,166.71009116,-154.88268097,164.24718955,-19.75133470
18.89039869,-15.00800872,-0.29787560,0.40372408,0.58692808

>  <Name>
F5057-0266

>  <RI>
2.95755e+07

>  <Rbt.Current_Directory>
/home/adria/Escritorio/rDock_CMTR_LC/2pxcA_model/inputs_sah

>  <Rbt.Executable>
rbdock ($Id: //depot/dev/client3/rdock/2013.1/src/exe/rbdock.cxx#4 $)

>  <Rbt.Library>
libRbt.so (2013.1, Build901 2013/11/27)

>  <Rbt.Parameter_File>
/home/adria/Escritorio/rDock_2013.1_src/data/scripts/dock.prm

>  <Rbt.Receptor>
sah_rdock.prm

>  <SCORE>
-234.321

>  <SCORE.INTER>
-12.0561

>  <SCORE.INTER.CONST>
1

>  <SCORE.INTER.POLAR>
0

>  <SCORE.INTER.REPUL>
0

>  <SCORE.INTER.ROT>
5

>  <SCORE.INTER.VDW>
-22.4561

>  <SCORE.INTER.norm>
-0.446521

>  <SCORE.INTRA>
-215.232

>  <SCORE.INTRA.DIHEDRAL>
-5.04421

>  <SCORE.INTRA.DIHEDRAL.0>
10.8009

>  <SCORE.INTRA.POLAR>
0

>  <SCORE.INTRA.POLAR.0>
0

>  <SCORE.INTRA.REPUL>
0

>  <SCORE.INTRA.REPUL.0>
0

>  <SCORE.INTRA.VDW>
-212.71

>  <SCORE.INTRA.VDW.0>
213.041

>  <SCORE.INTRA.norm>
-7.97156

>  <SCORE.RESTR>
0

>  <SCORE.RESTR.CAVITY>
0

>  <SCORE.RESTR.norm>
0

>  <SCORE.SYSTEM>
-7.03273

>  <SCORE.SYSTEM.CONST>
0

>  <SCORE.SYSTEM.DIHEDRAL>
5.25934

>  <SCORE.SYSTEM.POLAR>
-3.65705

>  <SCORE.SYSTEM.VDW>
2.77158

>  <SCORE.SYSTEM.norm>
-0.260472

>  <SCORE.heavy>
27

>  <SCORE.norm>
-8.67856

$$$$
F5057-0266
  rDOCK(R)          3D
libRbt.so/2013.1/901 2013/11/27
 27 30  0  0  0  0  0  0  0  0999 V2000
  -24.5666   19.9113   -8.7635 C   0  0  0  0  0  0
  -24.3493   18.8969   -9.8494 C   0  0  0  0  0  0
  -25.3606   17.9786  -10.1652 C   0  0  0  0  0  0
  -25.2036   17.0178  -11.1653 C   0  0  0  0  0  0
  -24.0209   16.9190  -11.9066 C   0  0  0  0  0  0
  -23.8893   15.9013  -12.9999 C   0  0  0  0  0  0
  -22.9915   17.8227  -11.6015 C   0  0  0  0  0  0
  -23.1607   18.7668  -10.5845 C   0  0  0  0  0  0
  -21.6953   19.6421  -10.4398 S   0  0  0  0  0  0
  -21.1793   18.9666  -11.9267 C   0  0  0  0  0  0
  -21.7896   17.8690  -12.2700 N   0  0  0  0  0  0
  -20.1264   19.5017  -12.6606 N   0  0  0  0  0  0
  -19.8453   21.0317  -12.3889 C   0  0  0  0  0  0
  -20.2981   22.2547  -13.4286 C   0  0  0  0  0  0
  -21.6746   23.1473  -13.3888 N   0  0  0  0  0  0
  -22.9905   22.1278  -12.5976 C   0  0  0  0  0  0
  -23.2579   22.4519  -10.3542 C   0  0  0  0  0  0
  -22.7234   24.0980   -9.9388 O   0  0  0  0  0  0
  -21.5054   24.7239  -10.6470 C   0  0  0  0  0  0
  -21.4042   24.6174  -12.4668 C   0  0  0  0  0  0
  -19.5216   18.5584  -13.5345 C   0  0  0  0  0  0
  -19.4725   17.3426  -13.4013 O   0  0  0  0  0  0
  -19.0624   19.1622  -14.7041 C   0  0  0  0  0  0
  -20.0490   19.2417  -16.1436 C   0  0  0  0  0  0
  -18.9752   20.4028  -17.5470 C   0  0  0  0  0  0
  -17.3406   20.5884  -16.9229 N   0  0  0  0  0  0
  -17.3425   19.7021  -15.1567 O   0  0  0  0  0  0
  1  2  1  0  0  0
  2  3  2  0  0  0
  2  8  1  0  0  0
  3  4  1  0  0  0
  4  5  2  0  0  0
  5  6  1  0  0  0
  5  7  1  0  0  0
  7  8  2  0  0  0
  7 11  1  0  0  0
  8  9  1  0  0  0
  9 10  1  0  0  0
 10 11  2  0  0  0
 10 12  1  0  0  0
 12 13  1  0  0  0
 12 21  1  0  0  0
 13 14  1  0  0  0
 14 15  1  0  0  0
 15 16  1  0  0  0
 15 20  1  0  0  0
 16 17  1  0  0  0
 17 18  1  0  0  0
 18 19  1  0  0  0
 19 20  1  0  0  0
 21 22  2  0  0  0
 21 23  1  0  0  0
 23 24  2  0  0  0
 23 27  1  0  0  0
 24 25  1  0  0  0
 25 26  2  0  0  0
 26 27  1  0  0  0
M  END
>  <CHROM.0>
-62.00392777,68.75345373,-128.51713651,65.82377239,-31.52998461,65.69683053
-157.04969897,-161.64918099

>  <CHROM.1>
-24.20895750,-103.32733308,93.71052263,-27.45713625,-93.08653104,-21.58880909
19.99984169,-12.38501391,-3.09763617,-0.77320099,-2.88675872

>  <Name>
F5057-0266

>  <RI>
2.95755e+07

>  <Rbt.Current_Directory>
/home/adria/Escritorio/rDock_CMTR_LC/2pxcA_model/inputs_sah

>  <Rbt.Executable>
rbdock ($Id: //depot/dev/client3/rdock/2013.1/src/exe/rbdock.cxx#4 $)

>  <Rbt.Library>
libRbt.so (2013.1, Build901 2013/11/27)

>  <Rbt.Parameter_File>
/home/adria/Escritorio/rDock_2013.1_src/data/scripts/dock.prm

>  <Rbt.Receptor>
sah_rdock.prm

>  <SCORE>
-231.308

>  <SCORE.INTER>
-16.128

>  <SCORE.INTER.CONST>
1

>  <SCORE.INTER.POLAR>
-1.43665

>  <SCORE.INTER.REPUL>
0.133516

>  <SCORE.INTER.ROT>
5

>  <SCORE.INTER.VDW>
-22.311

>  <SCORE.INTER.norm>
-0.597333

>  <SCORE.INTRA>
-208.363

>  <SCORE.INTRA.DIHEDRAL>
13.2274

>  <SCORE.INTRA.DIHEDRAL.0>
10.8009

>  <SCORE.INTRA.POLAR>
0

>  <SCORE.INTRA.POLAR.0>
0

>  <SCORE.INTRA.REPUL>
0

>  <SCORE.INTRA.REPUL.0>
0

>  <SCORE.INTRA.VDW>
-214.976

>  <SCORE.INTRA.VDW.0>
213.041

>  <SCORE.INTRA.norm>
-7.71714

>  <SCORE.RESTR>
0.0314461

>  <SCORE.RESTR.CAVITY>
0.0314461

>  <SCORE.RESTR.norm>
0.00116467

>  <SCORE.SYSTEM>
-6.84893

>  <SCORE.SYSTEM.CONST>
0

>  <SCORE.SYSTEM.DIHEDRAL>
8.99949

>  <SCORE.SYSTEM.POLAR>
-4.27227

>  <SCORE.SYSTEM.VDW>
3.17703

>  <SCORE.SYSTEM.norm>
-0.253664

>  <SCORE.heavy>
27

>  <SCORE.norm>
-8.56697

$$$$
F5057-0266
  rDOCK(R)          3D
libRbt.so/2013.1/901 2013/11/27
 27 30  0  0  0  0  0  0  0  0999 V2000
  -17.0677   15.3608  -18.5215 C   0  0  0  0  0  0
  -16.5302   16.6228  -17.9100 C   0  0  0  0  0  0
  -15.4668   17.3019  -18.5213 C   0  0  0  0  0  0
  -14.9339   18.4771  -17.9892 C   0  0  0  0  0  0
  -15.4344   19.0396  -16.8098 C   0  0  0  0  0  0
  -14.8686   20.3218  -16.2769 C   0  0  0  0  0  0
  -16.4935   18.3717  -16.1758 C   0  0  0  0  0  0
  -17.0025   17.1864  -16.7144 C   0  0  0  0  0  0
  -18.2211   16.6158  -15.6542 S   0  0  0  0  0  0
  -18.1996   18.1333  -14.8604 C   0  0  0  0  0  0
  -17.1104   18.8254  -15.0325 N   0  0  0  0  0  0
  -19.2292   18.5489  -14.0232 N   0  0  0  0  0  0
  -20.5212   17.6421  -14.0688 C   0  0  0  0  0  0
  -21.5945   17.6239  -15.3453 C   0  0  0  0  0  0
  -23.0949   16.9604  -15.3853 N   0  0  0  0  0  0
  -24.0599   17.6517  -13.9754 C   0  0  0  0  0  0
  -25.3479   19.4688  -14.4737 C   0  0  0  0  0  0
  -25.7792   19.4175  -16.1998 O   0  0  0  0  0  0
  -24.7631   18.9099  -17.2423 C   0  0  0  0  0  0
  -23.8771   17.3488  -16.9090 C   0  0  0  0  0  0
  -18.9165   19.7329  -13.3024 C   0  0  0  0  0  0
  -17.8084   20.1338  -12.9708 O   0  0  0  0  0  0
  -20.0467   20.5223  -13.0955 C   0  0  0  0  0  0
  -20.0188   21.9006  -12.0224 C   0  0  0  0  0  0
  -21.9009   22.8463  -12.2070 C   0  0  0  0  0  0
  -22.9500   21.7440  -13.0902 N   0  0  0  0  0  0
  -21.8148   20.1987  -13.5681 O   0  0  0  0  0  0
  1  2  1  0  0  0
  2  3  2  0  0  0
  2  8  1  0  0  0
  3  4  1  0  0  0
  4  5  2  0  0  0
  5  6  1  0  0  0
  5  7  1  0  0  0
  7  8  2  0  0  0
  7 11  1  0  0  0
  8  9  1  0  0  0
  9 10  1  0  0  0
 10 11  2  0  0  0
 10 12  1  0  0  0
 12 13  1  0  0  0
 12 21  1  0  0  0
 13 14  1  0  0  0
 14 15  1  0  0  0
 15 16  1  0  0  0
 15 20  1  0  0  0
 16 17  1  0  0  0
 17 18  1  0  0  0
 18 19  1  0  0  0
 19 20  1  0  0  0
 21 22  2  0  0  0
 21 23  1  0  0  0
 23 24  2  0  0  0
 23 27  1  0  0  0
 24 25  1  0  0  0
 25 26  2  0  0  0
 26 27  1  0  0  0
M  END
>  <CHROM.0>
-178.70968636,65.57225082,75.10617160,64.09684610,-30.14107775,-179.54553693
-36.75241090,-49.25432374

>  <CHROM.1>
-10.55710872,-73.17809613,-167.08983829,54.11524950,169.90548569,-19.78191272
18.68149470,-15.27610237,0.35866816,-0.05861561,-2.35723806

>  <Name>
F5057-0266

>  <RI>
2.95755e+07

>  <Rbt.Current_Directory>
/home/adria/Escritorio/rDock_CMTR_LC/2pxcA_model/inputs_sah

>  <Rbt.Executable>
rbdock ($Id: //depot/dev/client3/rdock/2013.1/src/exe/rbdock.cxx#4 $)

>  <Rbt.Library>
libRbt.so (2013.1, Build901 2013/11/27)

>  <Rbt.Parameter_File>
/home/adria/Escritorio/rDock_2013.1_src/data/scripts/dock.prm

>  <Rbt.Receptor>
sah_rdock.prm

>  <SCORE>
-232.391

>  <SCORE.INTER>
-10.3546

>  <SCORE.INTER.CONST>
1

>  <SCORE.INTER.POLAR>
0

>  <SCORE.INTER.REPUL>
0

>  <SCORE.INTER.ROT>
5

>  <SCORE.INTER.VDW>
-20.7546

>  <SCORE.INTER.norm>
-0.383504

>  <SCORE.INTRA>
-217.218

>  <SCORE.INTRA.DIHEDRAL>
-7.63006

>  <SCORE.INTRA.DIHEDRAL.0>
10.8009

>  <SCORE.INTRA.POLAR>
0

>  <SCORE.INTRA.POLAR.0>
0

>  <SCORE.INTRA.REPUL>
0

>  <SCORE.INTRA.REPUL.0>
0

>  <SCORE.INTRA.VDW>
-213.403

>  <SCORE.INTRA.VDW.0>
213.041

>  <SCORE.INTRA.norm>
-8.04513

>  <SCORE.RESTR>
0

>  <SCORE.RESTR.CAVITY>
0

>  <SCORE.RESTR.norm>
0

>  <SCORE.SYSTEM>
-4.81813

>  <SCORE.SYSTEM.CONST>
0

>  <SCORE.SYSTEM.DIHEDRAL>
8.28082

>  <SCORE.SYSTEM.POLAR>
-3.38445

>  <SCORE.SYSTEM.REPUL>
0.0136673

>  <SCORE.SYSTEM.VDW>
2.48025

>  <SCORE.SYSTEM.norm>
-0.178449

>  <SCORE.heavy>
27

>  <SCORE.norm>
-8.60708

$$$$
F5057-0266
  rDOCK(R)          3D
libRbt.so/2013.1/901 2013/11/27
 27 30  0  0  0  0  0  0  0  0999 V2000
  -23.8941   18.5731  -16.4452 C   0  0  0  0  0  0
  -22.4482   18.8851  -16.1855 C   0  0  0  0  0  0
  -21.4809   18.5914  -17.1571 C   0  0  0  0  0  0
  -20.1260   18.8624  -16.9600 C   0  0  0  0  0  0
  -19.6601   19.4416  -15.7745 C   0  0  0  0  0  0
  -18.2043   19.7556  -15.6003 C   0  0  0  0  0  0
  -20.6099   19.7362  -14.7841 C   0  0  0  0  0  0
  -21.9604   19.4415  -14.9928 C   0  0  0  0  0  0
  -22.8099   19.8617  -13.5658 S   0  0  0  0  0  0
  -21.4210   20.7038  -13.0224 C   0  0  0  0  0  0
  -20.3051   20.3396  -13.5856 N   0  0  0  0  0  0
  -21.4732   21.6376  -11.9934 N   0  0  0  0  0  0
  -22.9302   21.9857  -11.4937 C   0  0  0  0  0  0
  -23.2505   22.8325  -10.0929 C   0  0  0  0  0  0
  -24.7052   23.0593   -9.3680 N   0  0  0  0  0  0
  -25.9139   23.5637  -10.6646 C   0  0  0  0  0  0
  -27.1418   21.8643  -11.5665 C   0  0  0  0  0  0
  -27.2698   20.5471  -10.3763 O   0  0  0  0  0  0
  -26.0781   20.2066   -9.4594 C   0  0  0  0  0  0
  -25.2242   21.5698   -8.5959 C   0  0  0  0  0  0
  -20.1907   22.1135  -11.6084 C   0  0  0  0  0  0
  -19.1195   21.5283  -11.7000 O   0  0  0  0  0  0
  -20.2376   23.4463  -11.2024 C   0  0  0  0  0  0
  -21.4177   24.5608  -11.8482 C   0  0  0  0  0  0
  -21.1820   26.3722  -10.7833 C   0  0  0  0  0  0
  -19.6778   26.2491   -9.8787 N   0  0  0  0  0  0
  -18.9976   24.4263  -10.2246 O   0  0  0  0  0  0
  1  2  1  0  0  0
  2  3  2  0  0  0
  2  8  1  0  0  0
  3  4  1  0  0  0
  4  5  2  0  0  0
  5  6  1  0  0  0
  5  7  1  0  0  0
  7  8  2  0  0  0
  7 11  1  0  0  0
  8  9  1  0  0  0
  9 10  1  0  0  0
 10 11  2  0  0  0
 10 12  1  0  0  0
 12 13  1  0  0  0
 12 21  1  0  0  0
 13 14  1  0  0  0
 14 15  1  0  0  0
 15 16  1  0  0  0
 15 20  1  0  0  0
 16 17  1  0  0  0
 17 18  1  0  0  0
 18 19  1  0  0  0
 19 20  1  0  0  0
 21 22  2  0  0  0
 21 23  1  0  0  0
 23 24  2  0  0  0
 23 27  1  0  0  0
 24 25  1  0  0  0
 25 26  2  0  0  0
 26 27  1  0  0  0
M  END
>  <CHROM.0>
-63.97567028,-71.32819584,74.39344202,62.71560099,167.84089199,178.14287855
-156.15716225,-52.12698282

>  <CHROM.1>
-7.15834094,167.52109732,-170.27951009,-46.87525233,-29.33385542,-22.21404556
21.43768967,-12.52358339,1.13169658,-0.33040055,-2.32097012

>  <Name>
F5057-0266

>  <RI>
2.95755e+07

>  <Rbt.Current_Directory>
/home/adria/Escritorio/rDock_CMTR_LC/2pxcA_model/inputs_sah

>  <Rbt.Executable>
rbdock ($Id: //depot/dev/client3/rdock/2013.1/src/exe/rbdock.cxx#4 $)

>  <Rbt.Library>
libRbt.so (2013.1, Build901 2013/11/27)

>  <Rbt.Parameter_File>
/home/adria/Escritorio/rDock_2013.1_src/data/scripts/dock.prm

>  <Rbt.Receptor>
sah_rdock.prm

>  <SCORE>
-225.713

>  <SCORE.INTER>
-9.28643

>  <SCORE.INTER.CONST>
1

>  <SCORE.INTER.POLAR>
-0.938083

>  <SCORE.INTER.REPUL>
0.0215916

>  <SCORE.INTER.ROT>
5

>  <SCORE.INTER.VDW>
-16.6049

>  <SCORE.INTER.norm>
-0.343942

>  <SCORE.INTRA>
-215.518

>  <SCORE.INTRA.DIHEDRAL>
-6.3437

>  <SCORE.INTRA.DIHEDRAL.0>
10.8009

>  <SCORE.INTRA.POLAR>
0

>  <SCORE.INTRA.POLAR.0>
0

>  <SCORE.INTRA.REPUL>
0

>  <SCORE.INTRA.REPUL.0>
0

>  <SCORE.INTRA.VDW>
-212.346

>  <SCORE.INTRA.VDW.0>
213.041

>  <SCORE.INTRA.norm>
-7.98216

>  <SCORE.RESTR>
0.00846396

>  <SCORE.RESTR.CAVITY>
0.00846396

>  <SCORE.RESTR.norm>
0.00031348

>  <SCORE.SYSTEM>
-0.916911

>  <SCORE.SYSTEM.CONST>
0

>  <SCORE.SYSTEM.DIHEDRAL>
6.14868

>  <SCORE.SYSTEM.POLAR>
-3.68872

>  <SCORE.SYSTEM.REPUL>
0.0417349

>  <SCORE.SYSTEM.VDW>
8.34171

>  <SCORE.SYSTEM.norm>
-0.0339596

>  <SCORE.heavy>
27

>  <SCORE.norm>
-8.35975

$$$$
F5057-0266
  rDOCK(R)          3D
libRbt.so/2013.1/901 2013/11/27
 27 30  0  0  0  0  0  0  0  0999 V2000
  -14.2088   20.2353  -17.1861 C   0  0  0  0  0  0
  -15.2001   19.1117  -17.2868 C   0  0  0  0  0  0
  -14.8047   17.8707  -17.8056 C   0  0  0  0  0  0
  -15.6907   16.7982  -17.9192 C   0  0  0  0  0  0
  -17.0278   16.9079  -17.5217 C   0  0  0  0  0  0
  -17.9516   15.7310  -17.6208 C   0  0  0  0  0  0
  -17.4482   18.1442  -17.0074 C   0  0  0  0  0  0
  -16.5505   19.2121  -16.9174 C   0  0  0  0  0  0
  -17.4135   20.5667  -16.3215 S   0  0  0  0  0  0
  -18.7058   19.5229  -15.9047 C   0  0  0  0  0  0
  -18.7203   18.3883  -16.5431 N   0  0  0  0  0  0
  -19.7106   19.9003  -15.0208 N   0  0  0  0  0  0
  -19.4970   21.3115  -14.3450 C   0  0  0  0  0  0
  -20.7419   22.3567  -13.9716 C   0  0  0  0  0  0
  -21.6596   22.3788  -12.6114 N   0  0  0  0  0  0
  -20.6734   23.1745  -11.2731 C   0  0  0  0  0  0
  -21.0284   25.4125  -10.9999 C   0  0  0  0  0  0
  -22.6693   25.8117  -11.5620 O   0  0  0  0  0  0
  -23.2648   25.1030  -12.7948 C   0  0  0  0  0  0
  -23.1352   23.2852  -12.9036 C   0  0  0  0  0  0
  -20.7293   18.9189  -14.8847 C   0  0  0  0  0  0
  -21.0756   18.0837  -15.7099 O   0  0  0  0  0  0
  -21.2578   18.9021  -13.5948 C   0  0  0  0  0  0
  -20.3583   19.5122  -12.2272 C   0  0  0  0  0  0
  -21.6607   19.4290  -10.5636 C   0  0  0  0  0  0
  -23.0531   18.4664  -11.0437 N   0  0  0  0  0  0
  -22.7605   18.0212  -12.9466 O   0  0  0  0  0  0
  1  2  1  0  0  0
  2  3  2  0  0  0
  2  8  1  0  0  0
  3  4  1  0  0  0
  4  5  2  0  0  0
  5  6  1  0  0  0
  5  7  1  0  0  0
  7  8  2  0  0  0
  7 11  1  0  0  0
  8  9  1  0  0  0
  9 10  1  0  0  0
 10 11  2  0  0  0
 10 12  1  0  0  0
 12 13  1  0  0  0
 12 21  1  0  0  0
 13 14  1  0  0  0
 14 15  1  0  0  0
 15 16  1  0  0  0
 15 20  1  0  0  0
 16 17  1  0  0  0
 17 18  1  0  0  0
 18 19  1  0  0  0
 19 20  1  0  0  0
 21 22  2  0  0  0
 21 23  1  0  0  0
 23 24  2  0  0  0
 23 27  1  0  0  0
 24 25  1  0  0  0
 25 26  2  0  0  0
 26 27  1  0  0  0
M  END
>  <CHROM.0>
-176.64009726,67.76532128,75.26769043,65.84177624,-31.15934380,-56.43240197
-37.06293102,-161.51287064

>  <CHROM.1>
-4.92981605,145.14061431,85.80442572,78.12708066,-22.88700997,-19.50775287
20.18363775,-14.62999884,-0.70996159,0.61655412,0.23498519

>  <Name>
F5057-0266

>  <RI>
2.95755e+07

>  <Rbt.Current_Directory>
/home/adria/Escritorio/rDock_CMTR_LC/2pxcA_model/inputs_sah

>  <Rbt.Executable>
rbdock ($Id: //depot/dev/client3/rdock/2013.1/src/exe/rbdock.cxx#4 $)

>  <Rbt.Library>
libRbt.so (2013.1, Build901 2013/11/27)

>  <Rbt.Parameter_File>
/home/adria/Escritorio/rDock_2013.1_src/data/scripts/dock.prm

>  <Rbt.Receptor>
sah_rdock.prm

>  <SCORE>
-239.286

>  <SCORE.INTER>
-17.073

>  <SCORE.INTER.CONST>
1

>  <SCORE.INTER.POLAR>
-0.87178

>  <SCORE.INTER.REPUL>
0.0616023

>  <SCORE.INTER.ROT>
5

>  <SCORE.INTER.VDW>
-24.817

>  <SCORE.INTER.norm>
-0.632334

>  <SCORE.INTRA>
-215.303

>  <SCORE.INTRA.DIHEDRAL>
-5.42801

>  <SCORE.INTRA.DIHEDRAL.0>
10.8009

>  <SCORE.INTRA.POLAR>
0

>  <SCORE.INTRA.POLAR.0>
0

>  <SCORE.INTRA.REPUL>
0

>  <SCORE.INTRA.REPUL.0>
0

>  <SCORE.INTRA.VDW>
-212.589

>  <SCORE.INTRA.VDW.0>
213.041

>  <SCORE.INTRA.norm>
-7.97418

>  <SCORE.RESTR>
0

>  <SCORE.RESTR.CAVITY>
0

>  <SCORE.RESTR.norm>
0

>  <SCORE.SYSTEM>
-6.91052

>  <SCORE.SYSTEM.CONST>
0

>  <SCORE.SYSTEM.DIHEDRAL>
6.10656

>  <SCORE.SYSTEM.POLAR>
-3.7256

>  <SCORE.SYSTEM.VDW>
2.70325

>  <SCORE.SYSTEM.norm>
-0.255945

>  <SCORE.heavy>
27

>  <SCORE.norm>
-8.86245

$$$$
F5057-0266
  rDOCK(R)          3D
libRbt.so/2013.1/901 2013/11/27
 27 30  0  0  0  0  0  0  0  0999 V2000
  -24.1455   15.9465  -12.9976 C   0  0  0  0  0  0
  -23.6056   16.8078  -14.1031 C   0  0  0  0  0  0
  -23.9309   16.5242  -15.4370 C   0  0  0  0  0  0
  -23.4523   17.2956  -16.4971 C   0  0  0  0  0  0
  -22.6157   18.3965  -16.2822 C   0  0  0  0  0  0
  -22.1429   19.2311  -17.4346 C   0  0  0  0  0  0
  -22.2697   18.6939  -14.9550 C   0  0  0  0  0  0
  -22.7449   17.8992  -13.9077 C   0  0  0  0  0  0
  -22.0722   18.5021  -12.4521 S   0  0  0  0  0  0
  -21.5767   19.9067  -13.2976 C   0  0  0  0  0  0
  -21.4877   19.7653  -14.5887 N   0  0  0  0  0  0
  -21.2099   21.0775  -12.6432 N   0  0  0  0  0  0
  -21.4313   21.0548  -11.0798 C   0  0  0  0  0  0
  -22.7601   21.7213  -10.3235 C   0  0  0  0  0  0
  -23.1560   23.3095  -10.2060 N   0  0  0  0  0  0
  -24.2681   23.7239  -11.6160 C   0  0  0  0  0  0
  -26.5020   23.6037  -11.1635 C   0  0  0  0  0  0
  -26.7567   23.8839   -9.4244 O   0  0  0  0  0  0
  -25.7518   23.3363   -8.3914 C   0  0  0  0  0  0
  -23.9695   23.6087   -8.6786 C   0  0  0  0  0  0
  -20.7242   22.0795  -13.5261 C   0  0  0  0  0  0
  -20.1763   21.9180  -14.6088 O   0  0  0  0  0  0
  -21.0574   23.3591  -13.0845 C   0  0  0  0  0  0
  -20.6013   23.9293  -11.4974 C   0  0  0  0  0  0
  -21.1755   25.9619  -11.3992 C   0  0  0  0  0  0
  -22.2100   26.2754  -12.7875 N   0  0  0  0  0  0
  -22.2417   24.5895  -13.8178 O   0  0  0  0  0  0
  1  2  1  0  0  0
  2  3  2  0  0  0
  2  8  1  0  0  0
  3  4  1  0  0  0
  4  5  2  0  0  0
  5  6  1  0  0  0
  5  7  1  0  0  0
  7  8  2  0  0  0
  7 11  1  0  0  0
  8  9  1  0  0  0
  9 10  1  0  0  0
 10 11  2  0  0  0
 10 12  1  0  0  0
 12 13  1  0  0  0
 12 21  1  0  0  0
 13 14  1  0  0  0
 14 15  1  0  0  0
 15 16  1  0  0  0
 15 20  1  0  0  0
 16 17  1  0  0  0
 17 18  1  0  0  0
 18 19  1  0  0  0
 19 20  1  0  0  0
 21 22  2  0  0  0
 21 23  1  0  0  0
 23 24  2  0  0  0
 23 27  1  0  0  0
 24 25  1  0  0  0
 25 26  2  0  0  0
 26 27  1  0  0  0
M  END
>  <CHROM.0>
40.75174857,-73.18614008,-44.83839800,66.90207162,-25.41722109,60.75249274
-156.49245696,-162.15030056

>  <CHROM.1>
-6.09294644,-98.24213540,-67.82859330,92.67263747,56.33064155,-22.74661138
21.15126507,-12.75608639,1.40803251,-0.76138661,-2.66136849

>  <Name>
F5057-0266

>  <RI>
2.95755e+07

>  <Rbt.Current_Directory>
/home/adria/Escritorio/rDock_CMTR_LC/2pxcA_model/inputs_sah

>  <Rbt.Executable>
rbdock ($Id: //depot/dev/client3/rdock/2013.1/src/exe/rbdock.cxx#4 $)

>  <Rbt.Library>
libRbt.so (2013.1, Build901 2013/11/27)

>  <Rbt.Parameter_File>
/home/adria/Escritorio/rDock_2013.1_src/data/scripts/dock.prm

>  <Rbt.Receptor>
sah_rdock.prm

>  <SCORE>
-228.98

>  <SCORE.INTER>
-12.8607

>  <SCORE.INTER.CONST>
1

>  <SCORE.INTER.POLAR>
-1.54482

>  <SCORE.INTER.REPUL>
0.00208382

>  <SCORE.INTER.ROT>
5

>  <SCORE.INTER.VDW>
-18.0187

>  <SCORE.INTER.norm>
-0.476322

>  <SCORE.INTRA>
-213.23

>  <SCORE.INTRA.DIHEDRAL>
0.661125

>  <SCORE.INTRA.DIHEDRAL.0>
10.8009

>  <SCORE.INTRA.POLAR>
0

>  <SCORE.INTRA.POLAR.0>
0

>  <SCORE.INTRA.REPUL>
0

>  <SCORE.INTRA.REPUL.0>
0

>  <SCORE.INTRA.VDW>
-213.561

>  <SCORE.INTRA.VDW.0>
213.041

>  <SCORE.INTRA.norm>
-7.89742

>  <SCORE.RESTR>
0.0914269

>  <SCORE.RESTR.CAVITY>
0.0914269

>  <SCORE.RESTR.norm>
0.00338618

>  <SCORE.SYSTEM>
-2.98014

>  <SCORE.SYSTEM.CONST>
0

>  <SCORE.SYSTEM.DIHEDRAL>
9.38161

>  <SCORE.SYSTEM.POLAR>
-4.07847

>  <SCORE.SYSTEM.REPUL>
0.159519

>  <SCORE.SYSTEM.VDW>
5.39825

>  <SCORE.SYSTEM.norm>
-0.110376

>  <SCORE.heavy>
27

>  <SCORE.norm>
-8.48073

$$$$
F5057-0266
  rDOCK(R)          3D
libRbt.so/2013.1/901 2013/11/27
 27 30  0  0  0  0  0  0  0  0999 V2000
  -25.0432   20.4446   -8.3195 C   0  0  0  0  0  0
  -24.2194   21.6455   -8.6865 C   0  0  0  0  0  0
  -23.9735   22.6457   -7.7354 C   0  0  0  0  0  0
  -23.2149   23.7794   -8.0309 C   0  0  0  0  0  0
  -22.6601   23.9788   -9.2999 C   0  0  0  0  0  0
  -21.8193   25.1876   -9.5829 C   0  0  0  0  0  0
  -22.9008   22.9943  -10.2707 C   0  0  0  0  0  0
  -23.6776   21.8741   -9.9610 C   0  0  0  0  0  0
  -23.8220   20.9328  -11.3851 S   0  0  0  0  0  0
  -22.5770   21.8702  -12.0954 C   0  0  0  0  0  0
  -22.3898   23.0363  -11.5477 N   0  0  0  0  0  0
  -21.8855   21.4522  -13.2271 N   0  0  0  0  0  0
  -22.2898   20.0194  -13.7537 C   0  0  0  0  0  0
  -21.7286   18.5966  -13.0884 C   0  0  0  0  0  0
  -21.7770   17.0938  -13.7459 N   0  0  0  0  0  0
  -23.4062   16.3417  -13.3256 C   0  0  0  0  0  0
  -25.0317   16.5897  -14.9085 C   0  0  0  0  0  0
  -24.2640   16.7643  -16.5048 O   0  0  0  0  0  0
  -22.9459   17.5497  -16.6541 C   0  0  0  0  0  0
  -21.5850   17.2001  -15.4883 C   0  0  0  0  0  0
  -20.9267   22.4006  -13.6750 C   0  0  0  0  0  0
  -20.9511   23.6149  -13.5229 O   0  0  0  0  0  0
  -19.8118   21.7789  -14.2354 C   0  0  0  0  0  0
  -19.1977   20.2653  -13.6159 C   0  0  0  0  0  0
  -17.6382   19.6711  -14.9142 C   0  0  0  0  0  0
  -17.2683   21.0491  -15.9439 N   0  0  0  0  0  0
  -18.5715   22.4488  -15.4466 O   0  0  0  0  0  0
  1  2  1  0  0  0
  2  3  2  0  0  0
  2  8  1  0  0  0
  3  4  1  0  0  0
  4  5  2  0  0  0
  5  6  1  0  0  0
  5  7  1  0  0  0
  7  8  2  0  0  0
  7 11  1  0  0  0
  8  9  1  0  0  0
  9 10  1  0  0  0
 10 11  2  0  0  0
 10 12  1  0  0  0
 12 13  1  0  0  0
 12 21  1  0  0  0
 13 14  1  0  0  0
 14 15  1  0  0  0
 15 16  1  0  0  0
 15 20  1  0  0  0
 16 17  1  0  0  0
 17 18  1  0  0  0
 18 19  1  0  0  0
 19 20  1  0  0  0
 21 22  2  0  0  0
 21 23  1  0  0  0
 23 24  2  0  0  0
 23 27  1  0  0  0
 24 25  1  0  0  0
 25 26  2  0  0  0
 26 27  1  0  0  0
M  END
>  <CHROM.0>
-178.92969535,-164.59248764,-40.01905319,66.10435038,-30.64050338,-175.06752443
-156.62775638,-160.55186500

>  <CHROM.1>
-2.98635412,-79.93655541,-163.99584534,-86.42586492,-35.21479462,-22.13455070
20.74000480,-12.58639107,1.85229816,0.64231079,0.73303404

>  <Name>
F5057-0266

>  <RI>
2.95755e+07

>  <Rbt.Current_Directory>
/home/adria/Escritorio/rDock_CMTR_LC/2pxcA_model/inputs_sah

>  <Rbt.Executable>
rbdock ($Id: //depot/dev/client3/rdock/2013.1/src/exe/rbdock.cxx#4 $)

>  <Rbt.Library>
libRbt.so (2013.1, Build901 2013/11/27)

>  <Rbt.Parameter_File>
/home/adria/Escritorio/rDock_2013.1_src/data/scripts/dock.prm

>  <Rbt.Receptor>
sah_rdock.prm

>  <SCORE>
-225.14

>  <SCORE.INTER>
-4.43926

>  <SCORE.INTER.CONST>
1

>  <SCORE.INTER.POLAR>
-0.0902704

>  <SCORE.INTER.REPUL>
0.093711

>  <SCORE.INTER.ROT>
5

>  <SCORE.INTER.VDW>
-15.0009

>  <SCORE.INTER.norm>
-0.164417

>  <SCORE.INTRA>
-214.987

>  <SCORE.INTRA.DIHEDRAL>
-4.4442

>  <SCORE.INTRA.DIHEDRAL.0>
10.8009

>  <SCORE.INTRA.POLAR>
0

>  <SCORE.INTRA.POLAR.0>
0

>  <SCORE.INTRA.REPUL>
0

>  <SCORE.INTRA.REPUL.0>
0

>  <SCORE.INTRA.VDW>
-212.765

>  <SCORE.INTRA.VDW.0>
213.041

>  <SCORE.INTRA.norm>
-7.96247

>  <SCORE.RESTR>
0.00397449

>  <SCORE.RESTR.CAVITY>
0.00397449

>  <SCORE.RESTR.norm>
0.000147203

>  <SCORE.SYSTEM>
-5.71823

>  <SCORE.SYSTEM.CONST>
0

>  <SCORE.SYSTEM.DIHEDRAL>
7.45503

>  <SCORE.SYSTEM.POLAR>
-3.72857

>  <SCORE.SYSTEM.VDW>
3.2314

>  <SCORE.SYSTEM.norm>
-0.211786

>  <SCORE.heavy>
27

>  <SCORE.norm>
-8.33853

$$$$
F5057-0266
  rDOCK(R)          3D
libRbt.so/2013.1/901 2013/11/27
 27 30  0  0  0  0  0  0  0  0999 V2000
  -26.0702   21.1543  -11.6387 C   0  0  0  0  0  0
  -25.4342   19.8382  -11.9831 C   0  0  0  0  0  0
  -26.2221   18.6831  -12.0863 C   0  0  0  0  0  0
  -25.6754   17.4385  -12.4029 C   0  0  0  0  0  0
  -24.3044   17.2780  -12.6320 C   0  0  0  0  0  0
  -23.7458   15.9375  -13.0053 C   0  0  0  0  0  0
  -23.4949   18.4195  -12.5255 C   0  0  0  0  0  0
  -24.0582   19.6542  -12.1903 C   0  0  0  0  0  0
  -22.7834   20.7931  -12.0787 S   0  0  0  0  0  0
  -21.7447   19.6602  -12.8342 C   0  0  0  0  0  0
  -22.1389   18.4217  -12.7593 N   0  0  0  0  0  0
  -20.5298   20.0287  -13.4015 N   0  0  0  0  0  0
  -20.3493   21.5824  -13.6190 C   0  0  0  0  0  0
  -20.4020   22.7020  -12.3838 C   0  0  0  0  0  0
  -20.8835   24.2684  -12.4693 N   0  0  0  0  0  0
  -22.6251   24.2957  -13.0717 C   0  0  0  0  0  0
  -24.2196   24.3714  -11.4404 C   0  0  0  0  0  0
  -23.5300   25.1413   -9.9915 O   0  0  0  0  0  0
  -22.0629   24.8824   -9.5947 C   0  0  0  0  0  0
  -20.7749   25.0121  -10.8821 C   0  0  0  0  0  0
  -19.6935   18.9181  -13.6955 C   0  0  0  0  0  0
  -19.6757   17.8291  -13.1369 O   0  0  0  0  0  0
  -18.9235   19.1422  -14.8358 C   0  0  0  0  0  0
  -17.8204   17.9345  -15.4495 C   0  0  0  0  0  0
  -17.0524   18.6888  -17.2693 C   0  0  0  0  0  0
  -17.5075   20.3860  -17.3596 N   0  0  0  0  0  0
  -18.6081   20.7269  -15.7542 O   0  0  0  0  0  0
  1  2  1  0  0  0
  2  3  2  0  0  0
  2  8  1  0  0  0
  3  4  1  0  0  0
  4  5  2  0  0  0
  5  6  1  0  0  0
  5  7  1  0  0  0
  7  8  2  0  0  0
  7 11  1  0  0  0
  8  9  1  0  0  0
  9 10  1  0  0  0
 10 11  2  0  0  0
 10 12  1  0  0  0
 12 13  1  0  0  0
 12 21  1  0  0  0
 13 14  1  0  0  0
 14 15  1  0  0  0
 15 16  1  0  0  0
 15 20  1  0  0  0
 16 17  1  0  0  0
 17 18  1  0  0  0
 18 19  1  0  0  0
 19 20  1  0  0  0
 21 22  2  0  0  0
 21 23  1  0  0  0
 23 24  2  0  0  0
 23 27  1  0  0  0
 24 25  1  0  0  0
 25 26  2  0  0  0
 26 27  1  0  0  0
M  END
>  <CHROM.0>
174.89201113,-75.14061959,75.44694704,-60.13721081,168.46757486,-57.82776315
-157.06297861,-161.83810407

>  <CHROM.1>
-14.56941602,59.56330709,-150.59633498,58.71919215,-178.98620897,-21.88167855
20.58272253,-12.92219342,2.43474857,0.48628003,0.33406151

>  <Name>
F5057-0266

>  <RI>
2.95755e+07

>  <Rbt.Current_Directory>
/home/adria/Escritorio/rDock_CMTR_LC/2pxcA_model/inputs_sah

>  <Rbt.Executable>
rbdock ($Id: //depot/dev/client3/rdock/2013.1/src/exe/rbdock.cxx#4 $)

>  <Rbt.Library>
libRbt.so (2013.1, Build901 2013/11/27)

>  <Rbt.Parameter_File>
/home/adria/Escritorio/rDock_2013.1_src/data/scripts/dock.prm

>  <Rbt.Receptor>
sah_rdock.prm

>  <SCORE>
-231.4

>  <SCORE.INTER>
-13.6903

>  <SCORE.INTER.CONST>
1

>  <SCORE.INTER.POLAR>
-2.54493

>  <SCORE.INTER.REPUL>
0.192455

>  <SCORE.INTER.ROT>
5

>  <SCORE.INTER.VDW>
-16.3999

>  <SCORE.INTER.norm>
-0.50705

>  <SCORE.INTRA>
-215.323

>  <SCORE.INTRA.DIHEDRAL>
-4.4634

>  <SCORE.INTRA.DIHEDRAL.0>
10.8009

>  <SCORE.INTRA.POLAR>
0

>  <SCORE.INTRA.POLAR.0>
0

>  <SCORE.INTRA.REPUL>
0

>  <SCORE.INTRA.REPUL.0>
0

>  <SCORE.INTRA.VDW>
-213.092

>  <SCORE.INTRA.VDW.0>
213.041

>  <SCORE.INTRA.norm>
-7.97493

>  <SCORE.RESTR>
0

>  <SCORE.RESTR.CAVITY>
0

>  <SCORE.RESTR.norm>
0

>  <SCORE.SYSTEM>
-2.38625

>  <SCORE.SYSTEM.CONST>
0

>  <SCORE.SYSTEM.DIHEDRAL>
4.02297

>  <SCORE.SYSTEM.POLAR>
-4.04105

>  <SCORE.SYSTEM.REPUL>
0.0421321

>  <SCORE.SYSTEM.VDW>
9.13117

>  <SCORE.SYSTEM.norm>
-0.0883795

>  <SCORE.heavy>
27

>  <SCORE.norm>
-8.57036

$$$$
F5057-0266
  rDOCK(R)          3D
libRbt.so/2013.1/901 2013/11/27
 27 30  0  0  0  0  0  0  0  0999 V2000
  -24.7210   21.5653   -8.4807 C   0  0  0  0  0  0
  -23.7259   22.5454   -9.0327 C   0  0  0  0  0  0
  -23.3078   23.6348   -8.2554 C   0  0  0  0  0  0
  -22.3863   24.5713   -8.7263 C   0  0  0  0  0  0
  -21.8313   24.4724  -10.0070 C   0  0  0  0  0  0
  -20.8166   25.4711  -10.4772 C   0  0  0  0  0  0
  -22.2421   23.3944  -10.8062 C   0  0  0  0  0  0
  -23.1793   22.4762  -10.3236 C   0  0  0  0  0  0
  -23.4968   21.3516  -11.5763 S   0  0  0  0  0  0
  -22.1337   21.9529  -12.4212 C   0  0  0  0  0  0
  -21.7553   23.1479  -12.0694 N   0  0  0  0  0  0
  -21.5381   21.2533  -13.4649 N   0  0  0  0  0  0
  -22.2768   19.9170  -13.8677 C   0  0  0  0  0  0
  -22.0321   18.4567  -13.0998 C   0  0  0  0  0  0
  -23.0248   17.1500  -13.0890 N   0  0  0  0  0  0
  -23.7126   16.9728  -11.3883 C   0  0  0  0  0  0
  -25.7478   17.9502  -11.0533 C   0  0  0  0  0  0
  -26.6175   18.0240  -12.6044 O   0  0  0  0  0  0
  -25.8543   18.3104  -13.9130 C   0  0  0  0  0  0
  -24.3215   17.3780  -14.2512 C   0  0  0  0  0  0
  -20.3576   21.8776  -13.9508 C   0  0  0  0  0  0
  -20.0778   23.0689  -13.9223 O   0  0  0  0  0  0
  -19.4209   20.9399  -14.3829 C   0  0  0  0  0  0
  -19.2682   19.3766  -13.6183 C   0  0  0  0  0  0
  -17.8564   18.2858  -14.7532 C   0  0  0  0  0  0
  -17.0765   19.4257  -15.8433 N   0  0  0  0  0  0
  -17.9830   21.1553  -15.5406 O   0  0  0  0  0  0
  1  2  1  0  0  0
  2  3  2  0  0  0
  2  8  1  0  0  0
  3  4  1  0  0  0
  4  5  2  0  0  0
  5  6  1  0  0  0
  5  7  1  0  0  0
  7  8  2  0  0  0
  7 11  1  0  0  0
  8  9  1  0  0  0
  9 10  1  0  0  0
 10 11  2  0  0  0
 10 12  1  0  0  0
 12 13  1  0  0  0
 12 21  1  0  0  0
 13 14  1  0  0  0
 14 15  1  0  0  0
 15 16  1  0  0  0
 15 20  1  0  0  0
 16 17  1  0  0  0
 17 18  1  0  0  0
 18 19  1  0  0  0
 19 20  1  0  0  0
 21 22  2  0  0  0
 21 23  1  0  0  0
 23 24  2  0  0  0
 23 27  1  0  0  0
 24 25  1  0  0  0
 25 26  2  0  0  0
 26 27  1  0  0  0
M  END
>  <CHROM.0>
40.57901349,-70.91050930,-48.71962229,66.46710472,-31.15994302,-56.46752497
83.70064397,-161.90351597

>  <CHROM.1>
3.97033188,-84.42626428,159.31031581,-110.66608209,-32.97134753,-22.18687794
20.86105227,-12.27179388,2.23289165,0.52542230,0.60229894

>  <Name>
F5057-0266

>  <RI>
2.95755e+07

>  <Rbt.Current_Directory>
/home/adria/Escritorio/rDock_CMTR_LC/2pxcA_model/inputs_sah

>  <Rbt.Executable>
rbdock ($Id: //depot/dev/client3/rdock/2013.1/src/exe/rbdock.cxx#4 $)

>  <Rbt.Library>
libRbt.so (2013.1, Build901 2013/11/27)

>  <Rbt.Parameter_File>
/home/adria/Escritorio/rDock_2013.1_src/data/scripts/dock.prm

>  <Rbt.Receptor>
sah_rdock.prm

>  <SCORE>
-220.552

>  <SCORE.INTER>
-3.81731

>  <SCORE.INTER.CONST>
1

>  <SCORE.INTER.POLAR>
0

>  <SCORE.INTER.REPUL>
0.135665

>  <SCORE.INTER.ROT>
5

>  <SCORE.INTER.VDW>
-14.8956

>  <SCORE.INTER.norm>
-0.141382

>  <SCORE.INTRA>
-213.649

>  <SCORE.INTRA.DIHEDRAL>
-2.27499

>  <SCORE.INTRA.DIHEDRAL.0>
10.8009

>  <SCORE.INTRA.POLAR>
0

>  <SCORE.INTRA.POLAR.0>
0

>  <SCORE.INTRA.REPUL>
0

>  <SCORE.INTRA.REPUL.0>
0

>  <SCORE.INTRA.VDW>
-212.511

>  <SCORE.INTRA.VDW.0>
213.041

>  <SCORE.INTRA.norm>
-7.91291

>  <SCORE.RESTR>
0.0129966

>  <SCORE.RESTR.CAVITY>
0.0129966

>  <SCORE.RESTR.norm>
0.000481354

>  <SCORE.SYSTEM>
-3.09944

>  <SCORE.SYSTEM.CONST>
0

>  <SCORE.SYSTEM.DIHEDRAL>
7.8799

>  <SCORE.SYSTEM.POLAR>
-3.86582

>  <SCORE.SYSTEM.REPUL>
0.155839

>  <SCORE.SYSTEM.VDW>
5.32519

>  <SCORE.SYSTEM.norm>
-0.114794

>  <SCORE.heavy>
27

>  <SCORE.norm>
-8.1686

$$$$
F5057-0266
  rDOCK(R)          3D
libRbt.so/2013.1/901 2013/11/27
 27 30  0  0  0  0  0  0  0  0999 V2000
  -17.2690   19.7723  -15.9009 C   0  0  0  0  0  0
  -18.6716   19.2355  -15.9027 C   0  0  0  0  0  0
  -18.9777   18.0728  -16.6239 C   0  0  0  0  0  0
  -20.2664   17.5378  -16.6556 C   0  0  0  0  0  0
  -21.3261   18.1394  -15.9678 C   0  0  0  0  0  0
  -22.6942   17.5261  -15.9884 C   0  0  0  0  0  0
  -21.0446   19.3096  -15.2461 C   0  0  0  0  0  0
  -19.7513   19.8402  -15.2403 C   0  0  0  0  0  0
  -19.7897   21.2914  -14.3307 S   0  0  0  0  0  0
  -21.3433   20.8556  -13.7565 C   0  0  0  0  0  0
  -21.9754   19.9881  -14.4933 N   0  0  0  0  0  0
  -21.9179   21.4537  -12.6405 N   0  0  0  0  0  0
  -20.9870   22.4895  -11.8961 C   0  0  0  0  0  0
  -20.7295   24.0499  -12.4262 C   0  0  0  0  0  0
  -21.7679   25.3184  -12.3535 N   0  0  0  0  0  0
  -23.4495   24.7022  -12.7886 C   0  0  0  0  0  0
  -24.7615   24.1153  -11.0156 C   0  0  0  0  0  0
  -24.2507   25.0427   -9.5849 O   0  0  0  0  0  0
  -22.7585   25.3471   -9.3453 C   0  0  0  0  0  0
  -21.7666   25.9967  -10.7336 C   0  0  0  0  0  0
  -23.2355   20.9908  -12.3777 C   0  0  0  0  0  0
  -24.0455   20.5494  -13.1824 O   0  0  0  0  0  0
  -23.5074   20.9624  -11.0107 C   0  0  0  0  0  0
  -24.7250   19.9047  -10.3395 C   0  0  0  0  0  0
  -24.6114   20.1119   -8.2384 C   0  0  0  0  0  0
  -23.5944   21.5096   -7.9100 N   0  0  0  0  0  0
  -22.9708   22.1394   -9.6762 O   0  0  0  0  0  0
  1  2  1  0  0  0
  2  3  2  0  0  0
  2  8  1  0  0  0
  3  4  1  0  0  0
  4  5  2  0  0  0
  5  6  1  0  0  0
  5  7  1  0  0  0
  7  8  2  0  0  0
  7 11  1  0  0  0
  8  9  1  0  0  0
  9 10  1  0  0  0
 10 11  2  0  0  0
 10 12  1  0  0  0
 12 13  1  0  0  0
 12 21  1  0  0  0
 13 14  1  0  0  0
 14 15  1  0  0  0
 15 16  1  0  0  0
 15 20  1  0  0  0
 16 17  1  0  0  0
 17 18  1  0  0  0
 18 19  1  0  0  0
 19 20  1  0  0  0
 21 22  2  0  0  0
 21 23  1  0  0  0
 23 24  2  0  0  0
 23 27  1  0  0  0
 24 25  1  0  0  0
 25 26  2  0  0  0
 26 27  1  0  0  0
M  END
>  <CHROM.0>
-60.62691842,66.61100670,73.70296513,66.22300174,-30.63434667,62.25849371
83.33473912,-161.77752043

>  <CHROM.1>
-3.89515026,78.72826648,73.74066557,-41.10488390,-155.68155031,-21.87260288
21.42291684,-12.80518155,-0.95441895,0.74234677,0.44036708

>  <Name>
F5057-0266

>  <RI>
2.95755e+07

>  <Rbt.Current_Directory>
/home/adria/Escritorio/rDock_CMTR_LC/2pxcA_model/inputs_sah

>  <Rbt.Executable>
rbdock ($Id: //depot/dev/client3/rdock/2013.1/src/exe/rbdock.cxx#4 $)

>  <Rbt.Library>
libRbt.so (2013.1, Build901 2013/11/27)

>  <Rbt.Parameter_File>
/home/adria/Escritorio/rDock_2013.1_src/data/scripts/dock.prm

>  <Rbt.Receptor>
sah_rdock.prm

>  <SCORE>
-236.014

>  <SCORE.INTER>
-11.4596

>  <SCORE.INTER.CONST>
1

>  <SCORE.INTER.POLAR>
-0.808638

>  <SCORE.INTER.REPUL>
0.159873

>  <SCORE.INTER.ROT>
5

>  <SCORE.INTER.VDW>
-19.9096

>  <SCORE.INTER.norm>
-0.42443

>  <SCORE.INTRA>
-217.24

>  <SCORE.INTRA.DIHEDRAL>
-5.6633

>  <SCORE.INTRA.DIHEDRAL.0>
10.8009

>  <SCORE.INTRA.POLAR>
0

>  <SCORE.INTRA.POLAR.0>
0

>  <SCORE.INTRA.REPUL>
0

>  <SCORE.INTRA.REPUL.0>
0

>  <SCORE.INTRA.VDW>
-214.408

>  <SCORE.INTRA.VDW.0>
213.041

>  <SCORE.INTRA.norm>
-8.04592

>  <SCORE.RESTR>
0

>  <SCORE.RESTR.CAVITY>
0

>  <SCORE.RESTR.norm>
0

>  <SCORE.SYSTEM>
-7.31442

>  <SCORE.SYSTEM.CONST>
0

>  <SCORE.SYSTEM.DIHEDRAL>
5.99575

>  <SCORE.SYSTEM.POLAR>
-3.74593

>  <SCORE.SYSTEM.VDW>
2.42387

>  <SCORE.SYSTEM.norm>
-0.270905

>  <SCORE.heavy>
27

>  <SCORE.norm>
-8.74125

$$$$
F5057-0266
  rDOCK(R)          3D
libRbt.so/2013.1/901 2013/11/27
 27 30  0  0  0  0  0  0  0  0999 V2000
  -14.1092   20.5645  -17.1195 C   0  0  0  0  0  0
  -14.9438   19.3463  -17.3933 C   0  0  0  0  0  0
  -14.4366   18.3129  -18.1936 C   0  0  0  0  0  0
  -15.1756   17.1630  -18.4760 C   0  0  0  0  0  0
  -16.4694   16.9827  -17.9747 C   0  0  0  0  0  0
  -17.2300   15.7231  -18.2630 C   0  0  0  0  0  0
  -17.0009   18.0087  -17.1781 C   0  0  0  0  0  0
  -16.2522   19.1607  -16.9204 C   0  0  0  0  0  0
  -17.2281   20.2165  -15.9889 S   0  0  0  0  0  0
  -18.3192   18.9237  -15.7211 C   0  0  0  0  0  0
  -18.2424   17.9546  -16.5870 N   0  0  0  0  0  0
  -19.2739   18.9542  -14.7105 N   0  0  0  0  0  0
  -20.4287   17.8880  -14.8636 C   0  0  0  0  0  0
  -21.3686   17.3530  -13.5939 C   0  0  0  0  0  0
  -22.7993   16.5530  -13.6720 N   0  0  0  0  0  0
  -23.7015   16.8460  -12.0918 C   0  0  0  0  0  0
  -25.1894   18.5764  -12.1254 C   0  0  0  0  0  0
  -25.7582   18.8191  -13.7944 O   0  0  0  0  0  0
  -24.7913   18.6384  -14.9814 C   0  0  0  0  0  0
  -23.7398   17.1467  -15.0311 C   0  0  0  0  0  0
  -19.0276   19.9653  -13.7429 C   0  0  0  0  0  0
  -17.9483   20.4488  -13.4272 O   0  0  0  0  0  0
  -20.2148   20.4884  -13.2326 C   0  0  0  0  0  0
  -20.2454   21.4241  -11.7577 C   0  0  0  0  0  0
  -22.2269   22.1262  -11.5304 C   0  0  0  0  0  0
  -23.2217   21.2536  -12.6900 N   0  0  0  0  0  0
  -21.9712   20.1145  -13.7115 O   0  0  0  0  0  0
  1  2  1  0  0  0
  2  3  2  0  0  0
  2  8  1  0  0  0
  3  4  1  0  0  0
  4  5  2  0  0  0
  5  6  1  0  0  0
  5  7  1  0  0  0
  7  8  2  0  0  0
  7 11  1  0  0  0
  8  9  1  0  0  0
  9 10  1  0  0  0
 10 11  2  0  0  0
 10 12  1  0  0  0
 12 13  1  0  0  0
 12 21  1  0  0  0
 13 14  1  0  0  0
 14 15  1  0  0  0
 15 16  1  0  0  0
 15 20  1  0  0  0
 16 17  1  0  0  0
 17 18  1  0  0  0
 18 19  1  0  0  0
 19 20  1  0  0  0
 21 22  2  0  0  0
 21 23  1  0  0  0
 23 24  2  0  0  0
 23 27  1  0  0  0
 24 25  1  0  0  0
 25 26  2  0  0  0
 26 27  1  0  0  0
M  END
>  <CHROM.0>
-179.56457750,-75.23280815,109.58241145,63.86987428,-29.53242000,-60.93748988
-38.93627836,-162.47113292

>  <CHROM.1>
163.73456252,158.14080567,163.76290411,-156.25156295,163.71440385,-19.67496987
18.91037396,-14.99400956,-0.31825809,0.38678831,0.63222966

>  <Name>
F5057-0266

>  <RI>
2.95755e+07

>  <Rbt.Current_Directory>
/home/adria/Escritorio/rDock_CMTR_LC/2pxcA_model/inputs_sah

>  <Rbt.Executable>
rbdock ($Id: //depot/dev/client3/rdock/2013.1/src/exe/rbdock.cxx#4 $)

>  <Rbt.Library>
libRbt.so (2013.1, Build901 2013/11/27)

>  <Rbt.Parameter_File>
/home/adria/Escritorio/rDock_2013.1_src/data/scripts/dock.prm

>  <Rbt.Receptor>
sah_rdock.prm

>  <SCORE>
-234.331

>  <SCORE.INTER>
-12.3773

>  <SCORE.INTER.CONST>
1

>  <SCORE.INTER.POLAR>
0

>  <SCORE.INTER.REPUL>
0

>  <SCORE.INTER.ROT>
5

>  <SCORE.INTER.VDW>
-22.7773

>  <SCORE.INTER.norm>
-0.45842

>  <SCORE.INTRA>
-214.952

>  <SCORE.INTRA.DIHEDRAL>
-4.28181

>  <SCORE.INTRA.DIHEDRAL.0>
10.8009

>  <SCORE.INTRA.POLAR>
0

>  <SCORE.INTRA.POLAR.0>
0

>  <SCORE.INTRA.REPUL>
0

>  <SCORE.INTRA.REPUL.0>
0

>  <SCORE.INTRA.VDW>
-212.811

>  <SCORE.INTRA.VDW.0>
213.041

>  <SCORE.INTRA.norm>
-7.96117

>  <SCORE.RESTR>
0

>  <SCORE.RESTR.CAVITY>
0

>  <SCORE.RESTR.norm>
0

>  <SCORE.SYSTEM>
-7.00194

>  <SCORE.SYSTEM.CONST>
0

>  <SCORE.SYSTEM.DIHEDRAL>
9.61296

>  <SCORE.SYSTEM.POLAR>
-4.56861

>  <SCORE.SYSTEM.REPUL>
0.0422767

>  <SCORE.SYSTEM.VDW>
3.51346

>  <SCORE.SYSTEM.norm>
-0.259331

>  <SCORE.heavy>
27

>  <SCORE.norm>
-8.67892

$$$$
F5057-0266
  rDOCK(R)          3D
libRbt.so/2013.1/901 2013/11/27
 27 30  0  0  0  0  0  0  0  0999 V2000
  -20.4263   25.8145  -10.6490 C   0  0  0  0  0  0
  -21.6140   24.9473  -10.3444 C   0  0  0  0  0  0
  -22.7289   25.4884   -9.6888 C   0  0  0  0  0  0
  -23.8544   24.7212   -9.3841 C   0  0  0  0  0  0
  -23.9271   23.3639   -9.7164 C   0  0  0  0  0  0
  -25.1612   22.5692   -9.4102 C   0  0  0  0  0  0
  -22.8186   22.7988  -10.3656 C   0  0  0  0  0  0
  -21.6933   23.5790  -10.6469 C   0  0  0  0  0  0
  -20.5211   22.5584  -11.3674 S   0  0  0  0  0  0
  -21.7297   21.3617  -11.5685 C   0  0  0  0  0  0
  -22.7619   21.4896  -10.7855 N   0  0  0  0  0  0
  -21.5740   20.2866  -12.4365 N   0  0  0  0  0  0
  -20.2109   20.2764  -13.2339 C   0  0  0  0  0  0
  -19.5374   18.9025  -13.8978 C   0  0  0  0  0  0
  -20.0220   18.0968  -15.2428 N   0  0  0  0  0  0
  -20.1800   19.3202  -16.6122 C   0  0  0  0  0  0
  -18.3439   19.5258  -17.9522 C   0  0  0  0  0  0
  -17.4315   17.9978  -17.9233 O   0  0  0  0  0  0
  -17.3216   17.1801  -16.6210 C   0  0  0  0  0  0
  -18.8401   16.8657  -15.6574 C   0  0  0  0  0  0
  -22.6956   19.4141  -12.4482 C   0  0  0  0  0  0
  -23.4959   19.2157  -11.5435 O   0  0  0  0  0  0
  -22.8978   18.8538  -13.7086 C   0  0  0  0  0  0
  -24.0822   19.4981  -14.8194 C   0  0  0  0  0  0
  -23.8617   18.4224  -16.6263 C   0  0  0  0  0  0
  -22.8262   17.0417  -16.2840 N   0  0  0  0  0  0
  -22.2916   17.2350  -14.3915 O   0  0  0  0  0  0
  1  2  1  0  0  0
  2  3  2  0  0  0
  2  8  1  0  0  0
  3  4  1  0  0  0
  4  5  2  0  0  0
  5  6  1  0  0  0
  5  7  1  0  0  0
  7  8  2  0  0  0
  7 11  1  0  0  0
  8  9  1  0  0  0
  9 10  1  0  0  0
 10 11  2  0  0  0
 10 12  1  0  0  0
 12 13  1  0  0  0
 12 21  1  0  0  0
 13 14  1  0  0  0
 14 15  1  0  0  0
 15 16  1  0  0  0
 15 20  1  0  0  0
 16 17  1  0  0  0
 17 18  1  0  0  0
 18 19  1  0  0  0
 19 20  1  0  0  0
 21 22  2  0  0  0
 21 23  1  0  0  0
 23 24  2  0  0  0
 23 27  1  0  0  0
 24 25  1  0  0  0
 25 26  2  0  0  0
 26 27  1  0  0  0
M  END
>  <CHROM.0>
40.24378183,-75.20716441,-44.62470416,64.73129581,-31.21199239,-59.29990029
-156.53061178,-161.95184199

>  <CHROM.1>
-1.03965314,157.62150208,74.39546226,50.95418103,-98.75082530,-21.48160722
20.62781566,-13.08489190,-1.93220093,-0.38802387,-2.46498663

>  <Name>
F5057-0266

>  <RI>
2.95755e+07

>  <Rbt.Current_Directory>
/home/adria/Escritorio/rDock_CMTR_LC/2pxcA_model/inputs_sah

>  <Rbt.Executable>
rbdock ($Id: //depot/dev/client3/rdock/2013.1/src/exe/rbdock.cxx#4 $)

>  <Rbt.Library>
libRbt.so (2013.1, Build901 2013/11/27)

>  <Rbt.Parameter_File>
/home/adria/Escritorio/rDock_2013.1_src/data/scripts/dock.prm

>  <Rbt.Receptor>
sah_rdock.prm

>  <SCORE>
-222.945

>  <SCORE.INTER>
-6.86504

>  <SCORE.INTER.CONST>
1

>  <SCORE.INTER.POLAR>
0

>  <SCORE.INTER.REPUL>
0

>  <SCORE.INTER.ROT>
5

>  <SCORE.INTER.VDW>
-17.265

>  <SCORE.INTER.norm>
-0.254261

>  <SCORE.INTRA>
-212.635

>  <SCORE.INTRA.DIHEDRAL>
2.51062

>  <SCORE.INTRA.DIHEDRAL.0>
10.8009

>  <SCORE.INTRA.POLAR>
0

>  <SCORE.INTRA.POLAR.0>
0

>  <SCORE.INTRA.REPUL>
0

>  <SCORE.INTRA.REPUL.0>
0

>  <SCORE.INTRA.VDW>
-213.891

>  <SCORE.INTRA.VDW.0>
213.041

>  <SCORE.INTRA.norm>
-7.87538

>  <SCORE.RESTR>
0

>  <SCORE.RESTR.CAVITY>
0

>  <SCORE.RESTR.norm>
0

>  <SCORE.SYSTEM>
-3.44423

>  <SCORE.SYSTEM.CONST>
0

>  <SCORE.SYSTEM.DIHEDRAL>
8.53509

>  <SCORE.SYSTEM.POLAR>
-4.04439

>  <SCORE.SYSTEM.REPUL>
0.164618

>  <SCORE.SYSTEM.VDW>
5.21606

>  <SCORE.SYSTEM.norm>
-0.127564

>  <SCORE.heavy>
27

>  <SCORE.norm>
-8.2572

$$$$
F5057-0266
  rDOCK(R)          3D
libRbt.so/2013.1/901 2013/11/27
 27 30  0  0  0  0  0  0  0  0999 V2000
  -24.0446   16.9964  -15.5082 C   0  0  0  0  0  0
  -22.7955   17.7997  -15.7312 C   0  0  0  0  0  0
  -21.9937   17.5540  -16.8548 C   0  0  0  0  0  0
  -20.8241   18.2741  -17.1029 C   0  0  0  0  0  0
  -20.3873   19.2821  -16.2363 C   0  0  0  0  0  0
  -19.1463   20.0658  -16.5427 C   0  0  0  0  0  0
  -21.1698   19.5394  -15.1000 C   0  0  0  0  0  0
  -22.3289   18.7958  -14.8593 C   0  0  0  0  0  0
  -22.9829   19.3228  -13.3663 S   0  0  0  0  0  0
  -21.9270   20.6705  -13.4132 C   0  0  0  0  0  0
  -20.8859   20.5233  -14.1809 N   0  0  0  0  0  0
  -22.1223   21.7957  -12.6200 N   0  0  0  0  0  0
  -23.3191   21.6796  -11.5962 C   0  0  0  0  0  0
  -23.4399   22.5938  -10.2064 C   0  0  0  0  0  0
  -24.3304   22.2698   -8.8666 N   0  0  0  0  0  0
  -26.1081   22.2658   -9.3528 C   0  0  0  0  0  0
  -26.9737   20.2172   -9.8661 C   0  0  0  0  0  0
  -26.0536   18.9654   -8.9975 O   0  0  0  0  0  0
  -24.5307   19.1094   -8.8059 C   0  0  0  0  0  0
  -23.8731   20.7057   -8.2119 C   0  0  0  0  0  0
  -21.2086   22.8451  -12.9084 C   0  0  0  0  0  0
  -20.0777   22.7448  -13.3660 O   0  0  0  0  0  0
  -21.7927   24.0984  -12.7311 C   0  0  0  0  0  0
  -23.2859   24.5350  -13.5259 C   0  0  0  0  0  0
  -23.8272   26.4406  -12.7868 C   0  0  0  0  0  0
  -22.4369   27.0708  -11.9117 N   0  0  0  0  0  0
  -21.0813   25.6339  -11.9629 O   0  0  0  0  0  0
  1  2  1  0  0  0
  2  3  2  0  0  0
  2  8  1  0  0  0
  3  4  1  0  0  0
  4  5  2  0  0  0
  5  6  1  0  0  0
  5  7  1  0  0  0
  7  8  2  0  0  0
  7 11  1  0  0  0
  8  9  1  0  0  0
  9 10  1  0  0  0
 10 11  2  0  0  0
 10 12  1  0  0  0
 12 13  1  0  0  0
 12 21  1  0  0  0
 13 14  1  0  0  0
 14 15  1  0  0  0
 15 16  1  0  0  0
 15 20  1  0  0  0
 16 17  1  0  0  0
 17 18  1  0  0  0
 18 19  1  0  0  0
 19 20  1  0  0  0
 21 22  2  0  0  0
 21 23  1  0  0  0
 23 24  2  0  0  0
 23 27  1  0  0  0
 24 25  1  0  0  0
 25 26  2  0  0  0
 26 27  1  0  0  0
M  END
>  <CHROM.0>
-58.70119750,-74.31010432,-10.83273884,66.54249286,-29.81626308,64.86768522
-156.64048255,-159.79716270

>  <CHROM.1>
4.74811889,157.32794325,-159.28594048,-63.17118931,-53.89342332,-22.74498157
21.11806137,-12.77634772,0.93045278,-0.89933284,-2.70952042

>  <Name>
F5057-0266

>  <RI>
2.95755e+07

>  <Rbt.Current_Directory>
/home/adria/Escritorio/rDock_CMTR_LC/2pxcA_model/inputs_sah

>  <Rbt.Executable>
rbdock ($Id: //depot/dev/client3/rdock/2013.1/src/exe/rbdock.cxx#4 $)

>  <Rbt.Library>
libRbt.so (2013.1, Build901 2013/11/27)

>  <Rbt.Parameter_File>
/home/adria/Escritorio/rDock_2013.1_src/data/scripts/dock.prm

>  <Rbt.Receptor>
sah_rdock.prm

>  <SCORE>
-229.298

>  <SCORE.INTER>
-8.09252

>  <SCORE.INTER.CONST>
1

>  <SCORE.INTER.POLAR>
-1.23651

>  <SCORE.INTER.REPUL>
0.155219

>  <SCORE.INTER.ROT>
5

>  <SCORE.INTER.VDW>
-15.0645

>  <SCORE.INTER.norm>
-0.299723

>  <SCORE.INTRA>
-213.71

>  <SCORE.INTRA.DIHEDRAL>
-0.444718

>  <SCORE.INTRA.DIHEDRAL.0>
10.8009

>  <SCORE.INTRA.POLAR>
0

>  <SCORE.INTRA.POLAR.0>
0

>  <SCORE.INTRA.REPUL>
0

>  <SCORE.INTRA.REPUL.0>
0

>  <SCORE.INTRA.VDW>
-213.488

>  <SCORE.INTRA.VDW.0>
213.041

>  <SCORE.INTRA.norm>
-7.9152

>  <SCORE.RESTR>
0

>  <SCORE.RESTR.CAVITY>
0

>  <SCORE.RESTR.norm>
0

>  <SCORE.SYSTEM>
-7.49485

>  <SCORE.SYSTEM.CONST>
0

>  <SCORE.SYSTEM.DIHEDRAL>
9.95209

>  <SCORE.SYSTEM.POLAR>
-4.6912

>  <SCORE.SYSTEM.REPUL>
0.0407907

>  <SCORE.SYSTEM.VDW>
3.27524

>  <SCORE.SYSTEM.norm>
-0.277587

>  <SCORE.heavy>
27

>  <SCORE.norm>
-8.49251

$$$$
F5057-0266
  rDOCK(R)          3D
libRbt.so/2013.1/901 2013/11/27
 27 30  0  0  0  0  0  0  0  0999 V2000
  -14.0753   20.5208  -17.1566 C   0  0  0  0  0  0
  -14.9275   19.3160  -17.4351 C   0  0  0  0  0  0
  -14.4403   18.2845  -18.2503 C   0  0  0  0  0  0
  -15.1961   17.1469  -18.5377 C   0  0  0  0  0  0
  -16.4876   16.9775  -18.0265 C   0  0  0  0  0  0
  -17.2664   15.7305  -18.3207 C   0  0  0  0  0  0
  -16.9992   18.0018  -17.2149 C   0  0  0  0  0  0
  -16.2339   19.1418  -16.9524 C   0  0  0  0  0  0
  -17.1882   20.2000  -16.0015 S   0  0  0  0  0  0
  -18.2930   18.9183  -15.7369 C   0  0  0  0  0  0
  -18.2360   17.9572  -16.6132 N   0  0  0  0  0  0
  -19.2382   18.9502  -14.7176 N   0  0  0  0  0  0
  -20.3787   17.8653  -14.8432 C   0  0  0  0  0  0
  -21.3187   17.3581  -13.5621 C   0  0  0  0  0  0
  -22.7583   16.5727  -13.6230 N   0  0  0  0  0  0
  -23.6231   16.8458  -12.0186 C   0  0  0  0  0  0
  -25.0948   18.5900  -11.9891 C   0  0  0  0  0  0
  -25.6974   18.8677  -13.6406 O   0  0  0  0  0  0
  -24.7582   18.6993  -14.8516 C   0  0  0  0  0  0
  -23.7224   17.1992  -14.9505 C   0  0  0  0  0  0
  -18.9974   19.9794  -13.7677 C   0  0  0  0  0  0
  -17.9222   20.4832  -13.4700 O   0  0  0  0  0  0
  -20.1871   20.4930  -13.2537 C   0  0  0  0  0  0
  -20.2256   21.3978  -11.7598 C   0  0  0  0  0  0
  -22.2078   22.0970  -11.5296 C   0  0  0  0  0  0
  -23.1965   21.2497  -12.7130 N   0  0  0  0  0  0
  -21.9409   20.1309  -13.7507 O   0  0  0  0  0  0
  1  2  1  0  0  0
  2  3  2  0  0  0
  2  8  1  0  0  0
  3  4  1  0  0  0
  4  5  2  0  0  0
  5  6  1  0  0  0
  5  7  1  0  0  0
  7  8  2  0  0  0
  7 11  1  0  0  0
  8  9  1  0  0  0
  9 10  1  0  0  0
 10 11  2  0  0  0
 10 12  1  0  0  0
 12 13  1  0  0  0
 12 21  1  0  0  0
 13 14  1  0  0  0
 14 15  1  0  0  0
 15 16  1  0  0  0
 15 20  1  0  0  0
 16 17  1  0  0  0
 17 18  1  0  0  0
 18 19  1  0  0  0
 19 20  1  0  0  0
 21 22  2  0  0  0
 21 23  1  0  0  0
 23 24  2  0  0  0
 23 27  1  0  0  0
 24 25  1  0  0  0
 25 26  2  0  0  0
 26 27  1  0  0  0
M  END
>  <CHROM.0>
179.34994130,-72.51399268,-130.76230176,65.40985305,-30.43465108,-58.84655581
-36.29595303,-161.29373790

>  <CHROM.1>
165.85261398,159.39881086,162.00460423,-158.31636039,161.29761724,-19.64757550
18.91133736,-14.98988950,-0.32830285,0.39726025,0.62847573

>  <Name>
F5057-0266

>  <RI>
2.95755e+07

>  <Rbt.Current_Directory>
/home/adria/Escritorio/rDock_CMTR_LC/2pxcA_model/inputs_sah

>  <Rbt.Executable>
rbdock ($Id: //depot/dev/client3/rdock/2013.1/src/exe/rbdock.cxx#4 $)

>  <Rbt.Library>
libRbt.so (2013.1, Build901 2013/11/27)

>  <Rbt.Parameter_File>
/home/adria/Escritorio/rDock_2013.1_src/data/scripts/dock.prm

>  <Rbt.Receptor>
sah_rdock.prm

>  <SCORE>
-234.188

>  <SCORE.INTER>
-12.318

>  <SCORE.INTER.CONST>
1

>  <SCORE.INTER.POLAR>
0

>  <SCORE.INTER.REPUL>
0.00525642

>  <SCORE.INTER.ROT>
5

>  <SCORE.INTER.VDW>
-22.7443

>  <SCORE.INTER.norm>
-0.456224

>  <SCORE.INTRA>
-215.102

>  <SCORE.INTRA.DIHEDRAL>
-4.7838

>  <SCORE.INTRA.DIHEDRAL.0>
10.8009

>  <SCORE.INTRA.POLAR>
0

>  <SCORE.INTRA.POLAR.0>
0

>  <SCORE.INTRA.REPUL>
0

>  <SCORE.INTRA.REPUL.0>
0

>  <SCORE.INTRA.VDW>
-212.71

>  <SCORE.INTRA.VDW.0>
213.041

>  <SCORE.INTRA.norm>
-7.96675

>  <SCORE.RESTR>
0

>  <SCORE.RESTR.CAVITY>
0

>  <SCORE.RESTR.norm>
0

>  <SCORE.SYSTEM>
-6.76761

>  <SCORE.SYSTEM.CONST>
0

>  <SCORE.SYSTEM.DIHEDRAL>
9.44532

>  <SCORE.SYSTEM.POLAR>
-4.5042

>  <SCORE.SYSTEM.REPUL>
0.0376561

>  <SCORE.SYSTEM.VDW>
3.63571

>  <SCORE.SYSTEM.norm>
-0.250652

>  <SCORE.heavy>
27

>  <SCORE.norm>
-8.67363

$$$$
