F2359-0741
  rDOCK(R)          3D
libRbt.so/2013.1/901 2013/11/27
 27 29  0  0  0  0  0  0  0  0999 V2000
  -21.0247   18.7266  -12.4134 C   0  0  0  0  0  0
  -22.0966   19.5740  -11.6891 N   0  0  0  0  0  0
  -22.1959   20.1371  -10.2391 C   0  0  0  0  0  0
  -23.4122   19.5156  -12.2141 C   0  0  0  0  0  0
  -24.0266   18.2785  -11.5819 C   0  0  0  0  0  0
  -23.5281   16.9747  -12.2432 C   0  0  0  0  0  0
  -23.8398   16.6903  -13.6735 N   0  0  0  0  0  0
  -23.8542   17.5764  -14.7275 C   0  0  0  0  0  0
  -24.9297   18.3072  -15.0154 N   0  0  0  0  0  0
  -24.8124   19.0919  -16.0439 C   0  0  0  0  0  0
  -23.6404   19.3854  -16.8912 C   0  0  0  0  0  0
  -23.7069   20.1819  -17.9636 N   0  0  0  0  0  0
  -24.9484   20.6646  -18.2556 C   0  0  0  0  0  0
  -26.0546   20.4097  -17.4615 C   0  0  0  0  0  0
  -25.9969   19.6694  -16.3653 N   0  0  0  0  0  0
  -22.4859   18.7035  -16.4561 C   0  0  0  0  0  0
  -21.0409   18.8302  -17.1568 N   0  0  0  0  0  0
  -19.5157   18.9867  -16.8627 C   0  0  0  0  0  0
  -18.3679   19.0140  -17.7311 C   0  0  0  0  0  0
  -16.9855   19.2138  -17.5403 C   0  0  0  0  0  0
  -16.5928   19.5172  -16.2947 C   0  0  0  0  0  0
  -14.9547   19.9633  -16.0584 Cl  0  0  0  0  0  0
  -17.5924   19.5196  -15.3170 C   0  0  0  0  0  0
  -19.0192   19.2456  -15.5803 C   0  0  0  0  0  0
  -22.7686   17.8775  -15.4403 N   0  0  0  0  0  0
  -23.6151   15.7518  -13.9748 H   0  0  0  0  0  0
  -21.2467   19.1509  -18.1002 H   0  0  0  0  0  0
  1  2  1  0  0  0
  2  3  1  0  0  0
  2  4  1  0  0  0
  4  5  1  0  0  0
  5  6  1  0  0  0
  6  7  1  0  0  0
  7  8  1  0  0  0
  7 26  1  0  0  0
  8  9  2  0  0  0
  8 25  1  0  0  0
  9 10  1  0  0  0
 10 11  2  0  0  0
 10 15  1  0  0  0
 11 12  1  0  0  0
 11 16  1  0  0  0
 12 13  2  0  0  0
 13 14  1  0  0  0
 14 15  2  0  0  0
 16 17  1  0  0  0
 16 25  2  0  0  0
 17 18  1  0  0  0
 17 27  1  0  0  0
 18 19  2  0  0  0
 18 24  1  0  0  0
 19 20  1  0  0  0
 20 21  2  0  0  0
 21 22  1  0  0  0
 21 23  1  0  0  0
 23 24  2  0  0  0
M  END
>  <CHROM.0>
-60.23030857,-75.14541294,-42.73807416,63.29691209,-30.23779832,-178.31841274
83.24273447,-55.34041956

>  <CHROM.1>
84.36121210,-76.91015987,-64.01137370,39.23656723,-85.56896781,136.59237183
176.46486708,-21.50718404,19.08554786,-15.21758386,-2.92370519,-0.05348273
-1.41204427

>  <Name>
F2359-0741

>  <RI>
1.48627e+07

>  <Rbt.Current_Directory>
/home/adria/Escritorio/rDock_CMTR_LC/2pxcA_model/inputs_sah

>  <Rbt.Executable>
rbdock ($Id: //depot/dev/client3/rdock/2013.1/src/exe/rbdock.cxx#4 $)

>  <Rbt.Library>
libRbt.so (2013.1, Build901 2013/11/27)

>  <Rbt.Parameter_File>
/home/adria/Escritorio/rDock_2013.1_src/data/scripts/dock.prm

>  <Rbt.Receptor>
sah_rdock.prm

>  <SCORE>
-51.703

>  <SCORE.INTER>
-10.321

>  <SCORE.INTER.CONST>
1

>  <SCORE.INTER.POLAR>
-0.856031

>  <SCORE.INTER.REPUL>
0.0538481

>  <SCORE.INTER.ROT>
7

>  <SCORE.INTER.VDW>
-20.0797

>  <SCORE.INTER.norm>
-0.412838

>  <SCORE.INTRA>
-36.0569

>  <SCORE.INTRA.DIHEDRAL>
-0.5373

>  <SCORE.INTRA.DIHEDRAL.0>
9.08204

>  <SCORE.INTRA.POLAR>
0

>  <SCORE.INTRA.POLAR.0>
0

>  <SCORE.INTRA.REPUL>
-0.972342

>  <SCORE.INTRA.REPUL.0>
0.972342

>  <SCORE.INTRA.VDW>
-30.9266

>  <SCORE.INTRA.VDW.0>
31.9032

>  <SCORE.INTRA.norm>
-1.44228

>  <SCORE.RESTR>
0

>  <SCORE.RESTR.CAVITY>
0

>  <SCORE.RESTR.norm>
0

>  <SCORE.SYSTEM>
-5.32505

>  <SCORE.SYSTEM.CONST>
0

>  <SCORE.SYSTEM.DIHEDRAL>
9.79823

>  <SCORE.SYSTEM.POLAR>
-3.68612

>  <SCORE.SYSTEM.REPUL>
0.0421396

>  <SCORE.SYSTEM.VDW>
2.09796

>  <SCORE.SYSTEM.norm>
-0.213002

>  <SCORE.heavy>
25

>  <SCORE.norm>
-2.06812

$$$$
F2359-0741
  rDOCK(R)          3D
libRbt.so/2013.1/901 2013/11/27
 27 29  0  0  0  0  0  0  0  0999 V2000
  -19.3517   25.6872  -10.2084 C   0  0  0  0  0  0
  -20.8621   25.3899  -10.0608 N   0  0  0  0  0  0
  -21.7537   25.0328   -8.8332 C   0  0  0  0  0  0
  -21.5350   24.9339  -11.2224 C   0  0  0  0  0  0
  -22.3919   26.1094  -11.6598 C   0  0  0  0  0  0
  -23.4208   25.7128  -12.7413 C   0  0  0  0  0  0
  -24.3900   24.6083  -12.4880 N   0  0  0  0  0  0
  -24.1139   23.2823  -12.2395 C   0  0  0  0  0  0
  -24.8970   22.5357  -11.4628 N   0  0  0  0  0  0
  -24.5130   21.3055  -11.3008 C   0  0  0  0  0  0
  -23.3989   20.5641  -11.9228 C   0  0  0  0  0  0
  -23.0996   19.3025  -11.5944 N   0  0  0  0  0  0
  -23.8624   18.7615  -10.6020 C   0  0  0  0  0  0
  -24.9205   19.4398  -10.0193 C   0  0  0  0  0  0
  -25.2669   20.6685  -10.3704 N   0  0  0  0  0  0
  -22.6892   21.3519  -12.8517 C   0  0  0  0  0  0
  -21.4337   20.8261  -13.7132 N   0  0  0  0  0  0
  -20.5924   19.5559  -14.0539 C   0  0  0  0  0  0
  -20.8491   18.1528  -13.8584 C   0  0  0  0  0  0
  -20.1696   16.9648  -14.1961 C   0  0  0  0  0  0
  -19.0526   17.1027  -14.9249 C   0  0  0  0  0  0
  -18.3080   15.6803  -15.5252 Cl  0  0  0  0  0  0
  -18.6509   18.4147  -15.1942 C   0  0  0  0  0  0
  -19.3857   19.6193  -14.7596 C   0  0  0  0  0  0
  -23.1432   22.6120  -12.8606 N   0  0  0  0  0  0
  -25.2561   24.8990  -12.0550 H   0  0  0  0  0  0
  -20.8858   21.6638  -13.8954 H   0  0  0  0  0  0
  1  2  1  0  0  0
  2  3  1  0  0  0
  2  4  1  0  0  0
  4  5  1  0  0  0
  5  6  1  0  0  0
  6  7  1  0  0  0
  7  8  1  0  0  0
  7 26  1  0  0  0
  8  9  2  0  0  0
  8 25  1  0  0  0
  9 10  1  0  0  0
 10 11  2  0  0  0
 10 15  1  0  0  0
 11 12  1  0  0  0
 11 16  1  0  0  0
 12 13  2  0  0  0
 13 14  1  0  0  0
 14 15  2  0  0  0
 16 17  1  0  0  0
 16 25  2  0  0  0
 17 18  1  0  0  0
 17 27  1  0  0  0
 18 19  2  0  0  0
 18 24  1  0  0  0
 19 20  1  0  0  0
 20 21  2  0  0  0
 21 22  1  0  0  0
 21 23  1  0  0  0
 23 24  2  0  0  0
M  END
>  <CHROM.0>
38.71170663,66.70647496,-42.36535313,66.42143665,-31.02266379,-61.48082193
-156.60714613,-158.37958581

>  <CHROM.1>
-107.55084322,-168.17166380,56.04590005,-61.81787125,148.64501301,6.13103462
15.36329100,-21.85517945,21.11332061,-12.49378231,-2.01296219,-0.42584590
-2.86058489

>  <Name>
F2359-0741

>  <RI>
1.48627e+07

>  <Rbt.Current_Directory>
/home/adria/Escritorio/rDock_CMTR_LC/2pxcA_model/inputs_sah

>  <Rbt.Executable>
rbdock ($Id: //depot/dev/client3/rdock/2013.1/src/exe/rbdock.cxx#4 $)

>  <Rbt.Library>
libRbt.so (2013.1, Build901 2013/11/27)

>  <Rbt.Parameter_File>
/home/adria/Escritorio/rDock_2013.1_src/data/scripts/dock.prm

>  <Rbt.Receptor>
sah_rdock.prm

>  <SCORE>
-49.682

>  <SCORE.INTER>
-6.68796

>  <SCORE.INTER.CONST>
1

>  <SCORE.INTER.POLAR>
0

>  <SCORE.INTER.REPUL>
0

>  <SCORE.INTER.ROT>
7

>  <SCORE.INTER.VDW>
-19.088

>  <SCORE.INTER.norm>
-0.267518

>  <SCORE.INTRA>
-40.1692

>  <SCORE.INTRA.DIHEDRAL>
-4.01703

>  <SCORE.INTRA.DIHEDRAL.0>
9.08204

>  <SCORE.INTRA.POLAR>
0

>  <SCORE.INTRA.POLAR.0>
0

>  <SCORE.INTRA.REPUL>
-0.972342

>  <SCORE.INTRA.REPUL.0>
0.972342

>  <SCORE.INTRA.VDW>
-33.299

>  <SCORE.INTRA.VDW.0>
31.9032

>  <SCORE.INTRA.norm>
-1.60677

>  <SCORE.RESTR>
0

>  <SCORE.RESTR.CAVITY>
0

>  <SCORE.RESTR.norm>
0

>  <SCORE.SYSTEM>
-2.82484

>  <SCORE.SYSTEM.CONST>
0

>  <SCORE.SYSTEM.DIHEDRAL>
8.404

>  <SCORE.SYSTEM.POLAR>
-3.6855

>  <SCORE.SYSTEM.REPUL>
0.127276

>  <SCORE.SYSTEM.VDW>
4.86748

>  <SCORE.SYSTEM.norm>
-0.112994

>  <SCORE.heavy>
25

>  <SCORE.norm>
-1.98728

$$$$
F2359-0741
  rDOCK(R)          3D
libRbt.so/2013.1/901 2013/11/27
 27 29  0  0  0  0  0  0  0  0999 V2000
  -23.0775   20.3728  -10.4700 C   0  0  0  0  0  0
  -23.9314   20.0110  -11.7075 N   0  0  0  0  0  0
  -24.3833   18.6500  -12.3182 C   0  0  0  0  0  0
  -23.9984   20.9828  -12.7376 C   0  0  0  0  0  0
  -25.3108   21.7096  -12.4993 C   0  0  0  0  0  0
  -25.4965   22.9099  -13.4535 C   0  0  0  0  0  0
  -24.5715   24.0773  -13.3821 N   0  0  0  0  0  0
  -23.4205   24.1989  -12.6360 C   0  0  0  0  0  0
  -23.3382   25.0367  -11.6039 N   0  0  0  0  0  0
  -22.1906   25.0627  -10.9961 C   0  0  0  0  0  0
  -20.9851   24.2358  -11.1981 C   0  0  0  0  0  0
  -19.8504   24.4368  -10.5192 N   0  0  0  0  0  0
  -19.8637   25.4970   -9.6618 C   0  0  0  0  0  0
  -20.9919   26.2729   -9.4509 C   0  0  0  0  0  0
  -22.1404   26.0545  -10.0722 N   0  0  0  0  0  0
  -21.1706   23.2614  -12.1998 C   0  0  0  0  0  0
  -20.0510   22.1903  -12.6402 N   0  0  0  0  0  0
  -19.8498   20.7725  -13.2620 C   0  0  0  0  0  0
  -18.6699   19.9758  -13.4753 C   0  0  0  0  0  0
  -18.4267   18.6772  -13.9668 C   0  0  0  0  0  0
  -19.5064   17.9380  -14.2595 C   0  0  0  0  0  0
  -19.2621   16.2912  -14.6676 Cl  0  0  0  0  0  0
  -20.7442   18.5729  -14.1188 C   0  0  0  0  0  0
  -20.9224   19.9613  -13.6489 C   0  0  0  0  0  0
  -22.3652   23.3988  -12.7898 N   0  0  0  0  0  0
  -24.5352   24.6378  -14.2227 H   0  0  0  0  0  0
  -19.2270   22.4540  -12.1047 H   0  0  0  0  0  0
  1  2  1  0  0  0
  2  3  1  0  0  0
  2  4  1  0  0  0
  4  5  1  0  0  0
  5  6  1  0  0  0
  6  7  1  0  0  0
  7  8  1  0  0  0
  7 26  1  0  0  0
  8  9  2  0  0  0
  8 25  1  0  0  0
  9 10  1  0  0  0
 10 11  2  0  0  0
 10 15  1  0  0  0
 11 12  1  0  0  0
 11 16  1  0  0  0
 12 13  2  0  0  0
 13 14  1  0  0  0
 14 15  2  0  0  0
 16 17  1  0  0  0
 16 25  2  0  0  0
 17 18  1  0  0  0
 17 27  1  0  0  0
 18 19  2  0  0  0
 18 24  1  0  0  0
 19 20  1  0  0  0
 20 21  2  0  0  0
 21 22  1  0  0  0
 21 23  1  0  0  0
 23 24  2  0  0  0
M  END
>  <CHROM.0>
-178.33785380,-71.52128007,72.54366159,155.49144618,169.10868579,-65.69792384
-156.26335906,-164.05250168

>  <CHROM.1>
-98.34945635,174.42619738,-64.44506482,7.57669883,-111.36856245,153.72369211
-174.92824829,-21.69250647,21.66276514,-12.44522188,1.88202879,-0.05508572
0.41494051

>  <Name>
F2359-0741

>  <RI>
1.48627e+07

>  <Rbt.Current_Directory>
/home/adria/Escritorio/rDock_CMTR_LC/2pxcA_model/inputs_sah

>  <Rbt.Executable>
rbdock ($Id: //depot/dev/client3/rdock/2013.1/src/exe/rbdock.cxx#4 $)

>  <Rbt.Library>
libRbt.so (2013.1, Build901 2013/11/27)

>  <Rbt.Parameter_File>
/home/adria/Escritorio/rDock_2013.1_src/data/scripts/dock.prm

>  <Rbt.Receptor>
sah_rdock.prm

>  <SCORE>
-51.2508

>  <SCORE.INTER>
-11.1903

>  <SCORE.INTER.CONST>
1

>  <SCORE.INTER.POLAR>
-1.94057

>  <SCORE.INTER.REPUL>
0.722477

>  <SCORE.INTER.ROT>
7

>  <SCORE.INTER.VDW>
-20.6047

>  <SCORE.INTER.norm>
-0.447612

>  <SCORE.INTRA>
-40.8301

>  <SCORE.INTRA.DIHEDRAL>
-2.88421

>  <SCORE.INTRA.DIHEDRAL.0>
9.08204

>  <SCORE.INTRA.POLAR>
0

>  <SCORE.INTRA.POLAR.0>
0

>  <SCORE.INTRA.REPUL>
-0.972342

>  <SCORE.INTRA.REPUL.0>
0.972342

>  <SCORE.INTRA.VDW>
-34.5263

>  <SCORE.INTRA.VDW.0>
31.9032

>  <SCORE.INTRA.norm>
-1.6332

>  <SCORE.RESTR>
0

>  <SCORE.RESTR.CAVITY>
0

>  <SCORE.RESTR.norm>
0

>  <SCORE.SYSTEM>
0.769621

>  <SCORE.SYSTEM.CONST>
0

>  <SCORE.SYSTEM.DIHEDRAL>
5.83422

>  <SCORE.SYSTEM.POLAR>
-3.99095

>  <SCORE.SYSTEM.REPUL>
0.0357886

>  <SCORE.SYSTEM.VDW>
11.2428

>  <SCORE.SYSTEM.norm>
0.0307849

>  <SCORE.heavy>
25

>  <SCORE.norm>
-2.05003

$$$$
F2359-0741
  rDOCK(R)          3D
libRbt.so/2013.1/901 2013/11/27
 27 29  0  0  0  0  0  0  0  0999 V2000
  -23.4938   19.2962  -17.3845 C   0  0  0  0  0  0
  -25.0380   19.2465  -17.3169 N   0  0  0  0  0  0
  -26.1200   18.6748  -18.2823 C   0  0  0  0  0  0
  -25.6683   20.2172  -16.4981 C   0  0  0  0  0  0
  -25.7227   19.5835  -15.1186 C   0  0  0  0  0  0
  -26.5882   20.3998  -14.1335 C   0  0  0  0  0  0
  -26.4545   21.8835  -14.0667 N   0  0  0  0  0  0
  -25.3631   22.6158  -13.6557 C   0  0  0  0  0  0
  -25.4656   23.9012  -13.3222 N   0  0  0  0  0  0
  -24.3563   24.4757  -12.9663 C   0  0  0  0  0  0
  -23.0081   23.9084  -12.7706 C   0  0  0  0  0  0
  -21.9473   24.6607  -12.4583 N   0  0  0  0  0  0
  -22.1842   26.0016  -12.3856 C   0  0  0  0  0  0
  -23.4467   26.5470  -12.5523 C   0  0  0  0  0  0
  -24.5187   25.8128  -12.8067 N   0  0  0  0  0  0
  -22.9805   22.5160  -12.9892 C   0  0  0  0  0  0
  -21.6642   21.6005  -12.8340 N   0  0  0  0  0  0
  -20.9742   20.3004  -13.3544 C   0  0  0  0  0  0
  -19.7616   19.6325  -12.9596 C   0  0  0  0  0  0
  -19.1210   18.4355  -13.3391 C   0  0  0  0  0  0
  -19.7729   17.6632  -14.2202 C   0  0  0  0  0  0
  -19.1274   16.1111  -14.5551 Cl  0  0  0  0  0  0
  -20.9739   18.1769  -14.7192 C   0  0  0  0  0  0
  -21.5608   19.4704  -14.3163 C   0  0  0  0  0  0
  -24.1684   22.0728  -13.4213 N   0  0  0  0  0  0
  -27.0118   22.3874  -14.7432 H   0  0  0  0  0  0
  -21.2932   21.8475  -11.9194 H   0  0  0  0  0  0
  1  2  1  0  0  0
  2  3  1  0  0  0
  2  4  1  0  0  0
  4  5  1  0  0  0
  5  6  1  0  0  0
  6  7  1  0  0  0
  7  8  1  0  0  0
  7 26  1  0  0  0
  8  9  2  0  0  0
  8 25  1  0  0  0
  9 10  1  0  0  0
 10 11  2  0  0  0
 10 15  1  0  0  0
 11 12  1  0  0  0
 11 16  1  0  0  0
 12 13  2  0  0  0
 13 14  1  0  0  0
 14 15  2  0  0  0
 16 17  1  0  0  0
 16 25  2  0  0  0
 17 18  1  0  0  0
 17 27  1  0  0  0
 18 19  2  0  0  0
 18 24  1  0  0  0
 19 20  1  0  0  0
 20 21  2  0  0  0
 21 22  1  0  0  0
 21 23  1  0  0  0
 23 24  2  0  0  0
M  END
>  <CHROM.0>
-60.01701478,-77.07978306,-46.65509405,65.25582163,-29.99169016,179.37280116
83.49751595,-166.39124631

>  <CHROM.1>
-88.33813431,-170.54377423,-44.66000541,-65.57135655,-162.83640763,-151.00087770
-175.26097641,-22.99952924,20.98589330,-14.17955767,1.02616270,0.42371461
-2.65646609

>  <Name>
F2359-0741

>  <RI>
1.48627e+07

>  <Rbt.Current_Directory>
/home/adria/Escritorio/rDock_CMTR_LC/2pxcA_model/inputs_sah

>  <Rbt.Executable>
rbdock ($Id: //depot/dev/client3/rdock/2013.1/src/exe/rbdock.cxx#4 $)

>  <Rbt.Library>
libRbt.so (2013.1, Build901 2013/11/27)

>  <Rbt.Parameter_File>
/home/adria/Escritorio/rDock_2013.1_src/data/scripts/dock.prm

>  <Rbt.Receptor>
sah_rdock.prm

>  <SCORE>
-52.7466

>  <SCORE.INTER>
-6.89064

>  <SCORE.INTER.CONST>
1

>  <SCORE.INTER.POLAR>
-0.712787

>  <SCORE.INTER.REPUL>
0

>  <SCORE.INTER.ROT>
7

>  <SCORE.INTER.VDW>
-16.8672

>  <SCORE.INTER.norm>
-0.275626

>  <SCORE.INTRA>
-38.3109

>  <SCORE.INTRA.DIHEDRAL>
0.368054

>  <SCORE.INTRA.DIHEDRAL.0>
9.08204

>  <SCORE.INTRA.POLAR>
0

>  <SCORE.INTRA.POLAR.0>
0

>  <SCORE.INTRA.REPUL>
-0.972342

>  <SCORE.INTRA.REPUL.0>
0.972342

>  <SCORE.INTRA.VDW>
-33.6332

>  <SCORE.INTRA.VDW.0>
31.9032

>  <SCORE.INTRA.norm>
-1.53244

>  <SCORE.RESTR>
0.00173881

>  <SCORE.RESTR.CAVITY>
0.00173881

>  <SCORE.RESTR.norm>
6.95523e-05

>  <SCORE.SYSTEM>
-7.54675

>  <SCORE.SYSTEM.CONST>
0

>  <SCORE.SYSTEM.DIHEDRAL>
6.9705

>  <SCORE.SYSTEM.POLAR>
-4.06829

>  <SCORE.SYSTEM.REPUL>
0.044993

>  <SCORE.SYSTEM.VDW>
2.57523

>  <SCORE.SYSTEM.norm>
-0.30187

>  <SCORE.heavy>
25

>  <SCORE.norm>
-2.10986

$$$$
F2359-0741
  rDOCK(R)          3D
libRbt.so/2013.1/901 2013/11/27
 27 29  0  0  0  0  0  0  0  0999 V2000
  -26.6454   23.4715   -9.6346 C   0  0  0  0  0  0
  -25.1193   23.4246   -9.3887 N   0  0  0  0  0  0
  -24.2621   23.2287   -8.1017 C   0  0  0  0  0  0
  -24.3021   24.0708  -10.3502 C   0  0  0  0  0  0
  -23.6339   22.9397  -11.1130 C   0  0  0  0  0  0
  -22.8929   23.4409  -12.3721 C   0  0  0  0  0  0
  -21.9980   22.5226  -13.1333 N   0  0  0  0  0  0
  -22.0720   21.1503  -13.2198 C   0  0  0  0  0  0
  -23.2035   20.4915  -12.9754 N   0  0  0  0  0  0
  -23.1304   19.1988  -13.0792 C   0  0  0  0  0  0
  -22.0176   18.3391  -13.5267 C   0  0  0  0  0  0
  -22.0881   17.0035  -13.5146 N   0  0  0  0  0  0
  -23.2427   16.4848  -13.0077 C   0  0  0  0  0  0
  -24.3013   17.2789  -12.5976 C   0  0  0  0  0  0
  -24.2715   18.6014  -12.6541 N   0  0  0  0  0  0
  -20.8905   19.0896  -13.9188 C   0  0  0  0  0  0
  -19.5230   18.4463  -14.4762 N   0  0  0  0  0  0
  -18.1708   18.7910  -15.1762 C   0  0  0  0  0  0
  -17.1370   17.9573  -15.7320 C   0  0  0  0  0  0
  -15.9350   18.2003  -16.4273 C   0  0  0  0  0  0
  -15.6681   19.4792  -16.7287 C   0  0  0  0  0  0
  -14.3242   19.7985  -17.7437 Cl  0  0  0  0  0  0
  -16.5746   20.4280  -16.2460 C   0  0  0  0  0  0
  -17.7902   20.1045  -15.4728 C   0  0  0  0  0  0
  -21.0780   20.3957  -13.6886 N   0  0  0  0  0  0
  -21.5827   22.9293  -13.9605 H   0  0  0  0  0  0
  -19.7485   17.4649  -14.6220 H   0  0  0  0  0  0
  1  2  1  0  0  0
  2  3  1  0  0  0
  2  4  1  0  0  0
  4  5  1  0  0  0
  5  6  1  0  0  0
  6  7  1  0  0  0
  7  8  1  0  0  0
  7 26  1  0  0  0
  8  9  2  0  0  0
  8 25  1  0  0  0
  9 10  1  0  0  0
 10 11  2  0  0  0
 10 15  1  0  0  0
 11 12  1  0  0  0
 11 16  1  0  0  0
 12 13  2  0  0  0
 13 14  1  0  0  0
 14 15  2  0  0  0
 16 17  1  0  0  0
 16 25  2  0  0  0
 17 18  1  0  0  0
 17 27  1  0  0  0
 18 19  2  0  0  0
 18 24  1  0  0  0
 19 20  1  0  0  0
 20 21  2  0  0  0
 21 22  1  0  0  0
 21 23  1  0  0  0
 23 24  2  0  0  0
M  END
>  <CHROM.0>
-59.95323608,-74.89814782,-44.27622948,64.84132142,169.06077824,60.76975982
-156.09474390,-160.81582620

>  <CHROM.1>
-107.69118301,169.80918169,170.32012825,27.05268957,21.98780128,168.43060180
-171.02811661,-20.88344391,20.22704565,-13.55636630,-2.70107848,-0.51805264
-2.84116264

>  <Name>
F2359-0741

>  <RI>
1.48627e+07

>  <Rbt.Current_Directory>
/home/adria/Escritorio/rDock_CMTR_LC/2pxcA_model/inputs_sah

>  <Rbt.Executable>
rbdock ($Id: //depot/dev/client3/rdock/2013.1/src/exe/rbdock.cxx#4 $)

>  <Rbt.Library>
libRbt.so (2013.1, Build901 2013/11/27)

>  <Rbt.Parameter_File>
/home/adria/Escritorio/rDock_2013.1_src/data/scripts/dock.prm

>  <Rbt.Receptor>
sah_rdock.prm

>  <SCORE>
-48.4332

>  <SCORE.INTER>
-6.18068

>  <SCORE.INTER.CONST>
1

>  <SCORE.INTER.POLAR>
0

>  <SCORE.INTER.REPUL>
0

>  <SCORE.INTER.ROT>
7

>  <SCORE.INTER.VDW>
-18.5807

>  <SCORE.INTER.norm>
-0.247227

>  <SCORE.INTRA>
-39.4397

>  <SCORE.INTRA.DIHEDRAL>
-4.4151

>  <SCORE.INTRA.DIHEDRAL.0>
9.08204

>  <SCORE.INTRA.POLAR>
0

>  <SCORE.INTRA.POLAR.0>
0

>  <SCORE.INTRA.REPUL>
-0.972342

>  <SCORE.INTRA.REPUL.0>
0.972342

>  <SCORE.INTRA.VDW>
-32.3705

>  <SCORE.INTRA.VDW.0>
31.9032

>  <SCORE.INTRA.norm>
-1.57759

>  <SCORE.RESTR>
0

>  <SCORE.RESTR.CAVITY>
0

>  <SCORE.RESTR.norm>
0

>  <SCORE.SYSTEM>
-2.81274

>  <SCORE.SYSTEM.CONST>
0

>  <SCORE.SYSTEM.DIHEDRAL>
4.06217

>  <SCORE.SYSTEM.POLAR>
-4.03251

>  <SCORE.SYSTEM.REPUL>
0.0417476

>  <SCORE.SYSTEM.VDW>
8.65797

>  <SCORE.SYSTEM.norm>
-0.112509

>  <SCORE.heavy>
25

>  <SCORE.norm>
-1.93733

$$$$
F2359-0741
  rDOCK(R)          3D
libRbt.so/2013.1/901 2013/11/27
 27 29  0  0  0  0  0  0  0  0999 V2000
  -25.0490   18.2848   -9.2964 C   0  0  0  0  0  0
  -24.4050   19.6900   -9.3452 N   0  0  0  0  0  0
  -23.3051   20.3787   -8.4819 C   0  0  0  0  0  0
  -25.1660   20.7150   -9.9618 C   0  0  0  0  0  0
  -24.9840   20.4885  -11.4528 C   0  0  0  0  0  0
  -25.7579   21.5222  -12.3003 C   0  0  0  0  0  0
  -25.3724   22.9622  -12.2662 N   0  0  0  0  0  0
  -24.1722   23.5064  -11.8664 C   0  0  0  0  0  0
  -24.0664   24.2327  -10.7551 N   0  0  0  0  0  0
  -22.8801   24.6978  -10.5030 C   0  0  0  0  0  0
  -21.5978   24.4672  -11.1960 C   0  0  0  0  0  0
  -20.4643   25.0808  -10.8389 N   0  0  0  0  0  0
  -20.5835   25.9799   -9.8207 C   0  0  0  0  0  0
  -21.7769   26.1961   -9.1512 C   0  0  0  0  0  0
  -22.8964   25.5573   -9.4538 N   0  0  0  0  0  0
  -21.7313   23.5718  -12.2767 C   0  0  0  0  0  0
  -20.5121   23.0995  -13.2176 N   0  0  0  0  0  0
  -20.0254   21.9488  -14.1537 C   0  0  0  0  0  0
  -20.5923   20.6640  -14.4710 C   0  0  0  0  0  0
  -20.2425   19.6156  -15.3460 C   0  0  0  0  0  0
  -19.1843   19.8297  -16.1410 C   0  0  0  0  0  0
  -18.8474   18.6677  -17.3552 Cl  0  0  0  0  0  0
  -18.5043   21.0364  -15.9498 C   0  0  0  0  0  0
  -18.8962   22.0702  -14.9712 C   0  0  0  0  0  0
  -23.0134   23.2339  -12.4665 N   0  0  0  0  0  0
  -25.8345   23.5383  -12.9566 H   0  0  0  0  0  0
  -19.7141   23.6339  -12.8816 H   0  0  0  0  0  0
  1  2  1  0  0  0
  2  3  1  0  0  0
  2  4  1  0  0  0
  4  5  1  0  0  0
  5  6  1  0  0  0
  6  7  1  0  0  0
  7  8  1  0  0  0
  7 26  1  0  0  0
  8  9  2  0  0  0
  8 25  1  0  0  0
  9 10  1  0  0  0
 10 11  2  0  0  0
 10 15  1  0  0  0
 11 12  1  0  0  0
 11 16  1  0  0  0
 12 13  2  0  0  0
 13 14  1  0  0  0
 14 15  2  0  0  0
 16 17  1  0  0  0
 16 25  2  0  0  0
 17 18  1  0  0  0
 17 27  1  0  0  0
 18 19  2  0  0  0
 18 24  1  0  0  0
 19 20  1  0  0  0
 20 21  2  0  0  0
 21 22  1  0  0  0
 21 23  1  0  0  0
 23 24  2  0  0  0
M  END
>  <CHROM.0>
-60.13669684,-160.77148318,110.82485597,65.32176223,-29.75864084,-170.46830416
83.07004574,-159.91835134

>  <CHROM.1>
-78.76247185,179.72635387,65.89558662,19.96679453,-111.22339611,154.93344236
-5.07942704,-22.03099022,22.04374692,-12.38269748,2.35156154,0.69808013,0.51403322

>  <Name>
F2359-0741

>  <RI>
1.48627e+07

>  <Rbt.Current_Directory>
/home/adria/Escritorio/rDock_CMTR_LC/2pxcA_model/inputs_sah

>  <Rbt.Executable>
rbdock ($Id: //depot/dev/client3/rdock/2013.1/src/exe/rbdock.cxx#4 $)

>  <Rbt.Library>
libRbt.so (2013.1, Build901 2013/11/27)

>  <Rbt.Parameter_File>
/home/adria/Escritorio/rDock_2013.1_src/data/scripts/dock.prm

>  <Rbt.Receptor>
sah_rdock.prm

>  <SCORE>
-51.6038

>  <SCORE.INTER>
-6.46614

>  <SCORE.INTER.CONST>
1

>  <SCORE.INTER.POLAR>
-0.272094

>  <SCORE.INTER.REPUL>
0.38804

>  <SCORE.INTER.ROT>
7

>  <SCORE.INTER.VDW>
-19.8812

>  <SCORE.INTER.norm>
-0.258646

>  <SCORE.INTRA>
-39.432

>  <SCORE.INTRA.DIHEDRAL>
-2.93015

>  <SCORE.INTRA.DIHEDRAL.0>
9.08204

>  <SCORE.INTRA.POLAR>
0

>  <SCORE.INTRA.POLAR.0>
0

>  <SCORE.INTRA.REPUL>
-0.972342

>  <SCORE.INTRA.REPUL.0>
0.972342

>  <SCORE.INTRA.VDW>
-33.1053

>  <SCORE.INTRA.VDW.0>
31.9032

>  <SCORE.INTRA.norm>
-1.57728

>  <SCORE.RESTR>
0

>  <SCORE.RESTR.CAVITY>
0

>  <SCORE.RESTR.norm>
0

>  <SCORE.SYSTEM>
-5.70566

>  <SCORE.SYSTEM.CONST>
0

>  <SCORE.SYSTEM.DIHEDRAL>
10.8034

>  <SCORE.SYSTEM.POLAR>
-4.28959

>  <SCORE.SYSTEM.VDW>
3.47723

>  <SCORE.SYSTEM.norm>
-0.228226

>  <SCORE.heavy>
25

>  <SCORE.norm>
-2.06415

$$$$
F2359-0741
  rDOCK(R)          3D
libRbt.so/2013.1/901 2013/11/27
 27 29  0  0  0  0  0  0  0  0999 V2000
  -17.0631   13.1000  -14.6459 C   0  0  0  0  0  0
  -17.3583   12.6815  -16.1051 N   0  0  0  0  0  0
  -18.6689   12.2702  -16.8418 C   0  0  0  0  0  0
  -16.2704   12.1548  -16.8461 C   0  0  0  0  0  0
  -15.5322   13.3747  -17.3699 C   0  0  0  0  0  0
  -16.3227   14.1060  -18.4771 C   0  0  0  0  0  0
  -15.7855   15.3585  -19.0822 N   0  0  0  0  0  0
  -15.7493   16.6177  -18.5258 C   0  0  0  0  0  0
  -14.7094   17.4317  -18.6984 N   0  0  0  0  0  0
  -14.7989   18.5848  -18.1070 C   0  0  0  0  0  0
  -15.9161   19.1864  -17.3537 C   0  0  0  0  0  0
  -15.8201   20.3747  -16.7473 N   0  0  0  0  0  0
  -14.5971   20.9725  -16.8259 C   0  0  0  0  0  0
  -13.5437   20.4270  -17.5415 C   0  0  0  0  0  0
  -13.6369   19.2790  -18.1945 N   0  0  0  0  0  0
  -17.0500   18.3493  -17.3256 C   0  0  0  0  0  0
  -18.4385   18.7287  -16.6024 N   0  0  0  0  0  0
  -19.1519   19.8346  -15.7625 C   0  0  0  0  0  0
  -20.2695   19.7815  -14.8566 C   0  0  0  0  0  0
  -20.9170   20.7185  -14.0259 C   0  0  0  0  0  0
  -20.3751   21.9438  -13.9730 C   0  0  0  0  0  0
  -21.0086   23.0502  -12.8273 Cl  0  0  0  0  0  0
  -19.2791   22.1694  -14.8115 C   0  0  0  0  0  0
  -18.6846   21.1521  -15.7012 C   0  0  0  0  0  0
  -16.7920   17.1696  -17.9051 N   0  0  0  0  0  0
  -15.0331   15.2181  -19.7428 H   0  0  0  0  0  0
  -18.9002   17.8333  -16.4600 H   0  0  0  0  0  0
  1  2  1  0  0  0
  2  3  1  0  0  0
  2  4  1  0  0  0
  4  5  1  0  0  0
  5  6  1  0  0  0
  6  7  1  0  0  0
  7  8  1  0  0  0
  7 26  1  0  0  0
  8  9  2  0  0  0
  8 25  1  0  0  0
  9 10  1  0  0  0
 10 11  2  0  0  0
 10 15  1  0  0  0
 11 12  1  0  0  0
 11 16  1  0  0  0
 12 13  2  0  0  0
 13 14  1  0  0  0
 14 15  2  0  0  0
 16 17  1  0  0  0
 16 25  2  0  0  0
 17 18  1  0  0  0
 17 27  1  0  0  0
 18 19  2  0  0  0
 18 24  1  0  0  0
 19 20  1  0  0  0
 20 21  2  0  0  0
 21 22  1  0  0  0
 21 23  1  0  0  0
 23 24  2  0  0  0
M  END
>  <CHROM.0>
-179.29139948,-78.05361968,73.10574331,-62.45524993,-31.15889063,54.51766720
81.69014451,-158.22763778

>  <CHROM.1>
-83.45383220,-71.06055412,177.69244892,-74.73403689,141.32668009,-1.13041427
-156.46829273,-17.33165865,18.13282200,-16.39164923,1.06006404,-0.60584756
-3.04880088

>  <Name>
F2359-0741

>  <RI>
1.48627e+07

>  <Rbt.Current_Directory>
/home/adria/Escritorio/rDock_CMTR_LC/2pxcA_model/inputs_sah

>  <Rbt.Executable>
rbdock ($Id: //depot/dev/client3/rdock/2013.1/src/exe/rbdock.cxx#4 $)

>  <Rbt.Library>
libRbt.so (2013.1, Build901 2013/11/27)

>  <Rbt.Parameter_File>
/home/adria/Escritorio/rDock_2013.1_src/data/scripts/dock.prm

>  <Rbt.Receptor>
sah_rdock.prm

>  <SCORE>
-64.2441

>  <SCORE.INTER>
-17.0974

>  <SCORE.INTER.CONST>
1

>  <SCORE.INTER.POLAR>
-0.998332

>  <SCORE.INTER.REPUL>
0.0113096

>  <SCORE.INTER.ROT>
7

>  <SCORE.INTER.VDW>
-26.1597

>  <SCORE.INTER.norm>
-0.683898

>  <SCORE.INTRA>
-40.1139

>  <SCORE.INTRA.DIHEDRAL>
-4.68585

>  <SCORE.INTRA.DIHEDRAL.0>
9.08204

>  <SCORE.INTRA.POLAR>
0

>  <SCORE.INTRA.POLAR.0>
0

>  <SCORE.INTRA.REPUL>
-0.972342

>  <SCORE.INTRA.REPUL.0>
0.972342

>  <SCORE.INTRA.VDW>
-32.9093

>  <SCORE.INTRA.VDW.0>
31.9032

>  <SCORE.INTRA.norm>
-1.60456

>  <SCORE.RESTR>
0

>  <SCORE.RESTR.CAVITY>
0

>  <SCORE.RESTR.norm>
0

>  <SCORE.SYSTEM>
-7.03277

>  <SCORE.SYSTEM.CONST>
0

>  <SCORE.SYSTEM.DIHEDRAL>
7.08881

>  <SCORE.SYSTEM.POLAR>
-4.06577

>  <SCORE.SYSTEM.REPUL>
0.0462845

>  <SCORE.SYSTEM.VDW>
3.01501

>  <SCORE.SYSTEM.norm>
-0.281311

>  <SCORE.heavy>
25

>  <SCORE.norm>
-2.56977

$$$$
F2359-0741
  rDOCK(R)          3D
libRbt.so/2013.1/901 2013/11/27
 27 29  0  0  0  0  0  0  0  0999 V2000
  -27.1154   24.3402  -11.4269 C   0  0  0  0  0  0
  -25.8443   23.4982  -11.6853 N   0  0  0  0  0  0
  -25.5884   21.9617  -11.7433 C   0  0  0  0  0  0
  -24.6021   24.1266  -11.4170 C   0  0  0  0  0  0
  -24.0963   24.5800  -12.7757 C   0  0  0  0  0  0
  -22.6522   25.1241  -12.7105 C   0  0  0  0  0  0
  -21.5687   24.3086  -12.0904 N   0  0  0  0  0  0
  -21.2545   22.9913  -12.3400 C   0  0  0  0  0  0
  -21.9200   21.9902  -11.7667 N   0  0  0  0  0  0
  -21.5114   20.7973  -12.0785 C   0  0  0  0  0  0
  -20.4895   20.3626  -13.0504 C   0  0  0  0  0  0
  -20.1418   19.0805  -13.2066 N   0  0  0  0  0  0
  -20.7586   18.2022  -12.3655 C   0  0  0  0  0  0
  -21.7300   18.5934  -11.4586 C   0  0  0  0  0  0
  -22.1273   19.8497  -11.3285 N   0  0  0  0  0  0
  -19.9178   21.4495  -13.7425 C   0  0  0  0  0  0
  -18.7899   21.3047  -14.8834 N   0  0  0  0  0  0
  -17.7645   20.3091  -15.5117 C   0  0  0  0  0  0
  -16.5576   20.5226  -16.2669 C   0  0  0  0  0  0
  -15.5623   19.6806  -16.8031 C   0  0  0  0  0  0
  -15.6730   18.3736  -16.5249 C   0  0  0  0  0  0
  -14.3816   17.3451  -16.9859 Cl  0  0  0  0  0  0
  -16.8081   17.9913  -15.8035 C   0  0  0  0  0  0
  -17.8437   18.9254  -15.3186 C   0  0  0  0  0  0
  -20.3749   22.6160  -13.2689 N   0  0  0  0  0  0
  -20.7598   24.8381  -11.7948 H   0  0  0  0  0  0
  -18.5098   22.2623  -15.0824 H   0  0  0  0  0  0
  1  2  1  0  0  0
  2  3  1  0  0  0
  2  4  1  0  0  0
  4  5  1  0  0  0
  5  6  1  0  0  0
  6  7  1  0  0  0
  7  8  1  0  0  0
  7 26  1  0  0  0
  8  9  2  0  0  0
  8 25  1  0  0  0
  9 10  1  0  0  0
 10 11  2  0  0  0
 10 15  1  0  0  0
 11 12  1  0  0  0
 11 16  1  0  0  0
 12 13  2  0  0  0
 13 14  1  0  0  0
 14 15  2  0  0  0
 16 17  1  0  0  0
 16 25  2  0  0  0
 17 18  1  0  0  0
 17 27  1  0  0  0
 18 19  2  0  0  0
 18 24  1  0  0  0
 19 20  1  0  0  0
 20 21  2  0  0  0
 21 22  1  0  0  0
 21 23  1  0  0  0
 23 24  2  0  0  0
M  END
>  <CHROM.0>
-174.88919887,-70.97629810,77.29569112,65.57059875,-30.93572307,66.09495997
-37.54942754,-158.43141012

>  <CHROM.1>
-99.76756913,-172.26728662,52.71164759,49.73894373,-81.75163687,-14.02254631
-157.21327687,-20.33694375,20.98136747,-13.62839355,-2.78578715,-0.57347936
2.90738229

>  <Name>
F2359-0741

>  <RI>
1.48627e+07

>  <Rbt.Current_Directory>
/home/adria/Escritorio/rDock_CMTR_LC/2pxcA_model/inputs_sah

>  <Rbt.Executable>
rbdock ($Id: //depot/dev/client3/rdock/2013.1/src/exe/rbdock.cxx#4 $)

>  <Rbt.Library>
libRbt.so (2013.1, Build901 2013/11/27)

>  <Rbt.Parameter_File>
/home/adria/Escritorio/rDock_2013.1_src/data/scripts/dock.prm

>  <Rbt.Receptor>
sah_rdock.prm

>  <SCORE>
-58.9944

>  <SCORE.INTER>
-10.8275

>  <SCORE.INTER.CONST>
1

>  <SCORE.INTER.POLAR>
0

>  <SCORE.INTER.REPUL>
0.0423161

>  <SCORE.INTER.ROT>
7

>  <SCORE.INTER.VDW>
-23.4391

>  <SCORE.INTER.norm>
-0.433099

>  <SCORE.INTRA>
-41.0806

>  <SCORE.INTRA.DIHEDRAL>
-4.6281

>  <SCORE.INTRA.DIHEDRAL.0>
9.08204

>  <SCORE.INTRA.POLAR>
0

>  <SCORE.INTRA.POLAR.0>
0

>  <SCORE.INTRA.REPUL>
-0.972342

>  <SCORE.INTRA.REPUL.0>
0.972342

>  <SCORE.INTRA.VDW>
-33.9048

>  <SCORE.INTRA.VDW.0>
31.9032

>  <SCORE.INTRA.norm>
-1.64322

>  <SCORE.RESTR>
0

>  <SCORE.RESTR.CAVITY>
0

>  <SCORE.RESTR.norm>
0

>  <SCORE.SYSTEM>
-7.08639

>  <SCORE.SYSTEM.CONST>
0

>  <SCORE.SYSTEM.DIHEDRAL>
6.8182

>  <SCORE.SYSTEM.POLAR>
-4.00911

>  <SCORE.SYSTEM.REPUL>
0.0347232

>  <SCORE.SYSTEM.VDW>
2.96186

>  <SCORE.SYSTEM.norm>
-0.283456

>  <SCORE.heavy>
25

>  <SCORE.norm>
-2.35978

$$$$
F2359-0741
  rDOCK(R)          3D
libRbt.so/2013.1/901 2013/11/27
 27 29  0  0  0  0  0  0  0  0999 V2000
  -14.4379   16.7477  -16.3189 C   0  0  0  0  0  0
  -14.6561   17.9225  -17.3006 N   0  0  0  0  0  0
  -14.2702   18.1357  -18.7956 C   0  0  0  0  0  0
  -14.8484   19.2033  -16.7238 C   0  0  0  0  0  0
  -16.3561   19.3616  -16.6267 C   0  0  0  0  0  0
  -16.7682   20.7874  -16.1991 C   0  0  0  0  0  0
  -18.1957   21.1003  -15.9026 N   0  0  0  0  0  0
  -19.2153   20.2161  -15.6289 C   0  0  0  0  0  0
  -20.3262   20.5981  -15.0014 N   0  0  0  0  0  0
  -21.2008   19.6605  -14.7940 C   0  0  0  0  0  0
  -21.2115   18.2517  -15.2333 C   0  0  0  0  0  0
  -22.1718   17.3919  -14.8761 N   0  0  0  0  0  0
  -23.1170   17.8919  -14.0300 C   0  0  0  0  0  0
  -23.1283   19.2154  -13.6210 C   0  0  0  0  0  0
  -22.2178   20.0950  -14.0087 N   0  0  0  0  0  0
  -20.0878   17.9325  -16.0225 C   0  0  0  0  0  0
  -19.8191   16.4831  -16.6719 N   0  0  0  0  0  0
  -18.7478   15.6206  -17.4106 C   0  0  0  0  0  0
  -18.8070   14.3034  -17.9886 C   0  0  0  0  0  0
  -17.9071   13.5000  -18.7178 C   0  0  0  0  0  0
  -16.7304   14.0591  -19.0352 C   0  0  0  0  0  0
  -15.6913   13.1936  -20.0884 Cl  0  0  0  0  0  0
  -16.5044   15.3450  -18.5345 C   0  0  0  0  0  0
  -17.4753   16.1095  -17.7265 C   0  0  0  0  0  0
  -19.2378   18.9654  -16.0900 N   0  0  0  0  0  0
  -18.3472   21.9968  -15.4604 H   0  0  0  0  0  0
  -20.7493   16.1158  -16.8595 H   0  0  0  0  0  0
  1  2  1  0  0  0
  2  3  1  0  0  0
  2  4  1  0  0  0
  4  5  1  0  0  0
  5  6  1  0  0  0
  6  7  1  0  0  0
  7  8  1  0  0  0
  7 26  1  0  0  0
  8  9  2  0  0  0
  8 25  1  0  0  0
  9 10  1  0  0  0
 10 11  2  0  0  0
 10 15  1  0  0  0
 11 12  1  0  0  0
 11 16  1  0  0  0
 12 13  2  0  0  0
 13 14  1  0  0  0
 14 15  2  0  0  0
 16 17  1  0  0  0
 16 25  2  0  0  0
 17 18  1  0  0  0
 17 27  1  0  0  0
 18 19  2  0  0  0
 18 24  1  0  0  0
 19 20  1  0  0  0
 20 21  2  0  0  0
 21 22  1  0  0  0
 21 23  1  0  0  0
 23 24  2  0  0  0
M  END
>  <CHROM.0>
-61.09831221,-72.61065741,-165.38204276,65.70247136,168.57737091,-63.67342792
-156.30997812,-163.69205248

>  <CHROM.1>
-94.28867774,-172.00066653,-173.26848687,17.72997788,159.60573104,-169.79294753
-175.05714259,-18.28702324,17.45016322,-16.75276570,-0.79266921,0.33914014
0.42901307

>  <Name>
F2359-0741

>  <RI>
1.48627e+07

>  <Rbt.Current_Directory>
/home/adria/Escritorio/rDock_CMTR_LC/2pxcA_model/inputs_sah

>  <Rbt.Executable>
rbdock ($Id: //depot/dev/client3/rdock/2013.1/src/exe/rbdock.cxx#4 $)

>  <Rbt.Library>
libRbt.so (2013.1, Build901 2013/11/27)

>  <Rbt.Parameter_File>
/home/adria/Escritorio/rDock_2013.1_src/data/scripts/dock.prm

>  <Rbt.Receptor>
sah_rdock.prm

>  <SCORE>
-49.4328

>  <SCORE.INTER>
-6.6177

>  <SCORE.INTER.CONST>
1

>  <SCORE.INTER.POLAR>
-0.636301

>  <SCORE.INTER.REPUL>
0.00344029

>  <SCORE.INTER.ROT>
7

>  <SCORE.INTER.VDW>
-16.8715

>  <SCORE.INTER.norm>
-0.264708

>  <SCORE.INTRA>
-40.0771

>  <SCORE.INTRA.DIHEDRAL>
-2.89748

>  <SCORE.INTRA.DIHEDRAL.0>
9.08204

>  <SCORE.INTRA.POLAR>
0

>  <SCORE.INTRA.POLAR.0>
0

>  <SCORE.INTRA.REPUL>
-0.972342

>  <SCORE.INTRA.REPUL.0>
0.972342

>  <SCORE.INTRA.VDW>
-33.7667

>  <SCORE.INTRA.VDW.0>
31.9032

>  <SCORE.INTRA.norm>
-1.60309

>  <SCORE.RESTR>
0

>  <SCORE.RESTR.CAVITY>
0

>  <SCORE.RESTR.norm>
0

>  <SCORE.SYSTEM>
-2.73795

>  <SCORE.SYSTEM.CONST>
0

>  <SCORE.SYSTEM.DIHEDRAL>
3.6765

>  <SCORE.SYSTEM.POLAR>
-3.95501

>  <SCORE.SYSTEM.REPUL>
0.0378328

>  <SCORE.SYSTEM.VDW>
8.68167

>  <SCORE.SYSTEM.norm>
-0.109518

>  <SCORE.heavy>
25

>  <SCORE.norm>
-1.97731

$$$$
F2359-0741
  rDOCK(R)          3D
libRbt.so/2013.1/901 2013/11/27
 27 29  0  0  0  0  0  0  0  0999 V2000
  -22.4211   23.5992  -13.1153 C   0  0  0  0  0  0
  -21.7593   23.3657  -11.7372 N   0  0  0  0  0  0
  -21.1895   24.3379  -10.6604 C   0  0  0  0  0  0
  -21.1544   22.1002  -11.5307 C   0  0  0  0  0  0
  -22.2533   21.2390  -10.9321 C   0  0  0  0  0  0
  -21.7210   19.8812  -10.4238 C   0  0  0  0  0  0
  -21.3527   18.8080  -11.3914 N   0  0  0  0  0  0
  -20.5278   18.9073  -12.4896 C   0  0  0  0  0  0
  -20.0506   20.0792  -12.9054 N   0  0  0  0  0  0
  -19.2961   20.0317  -13.9617 C   0  0  0  0  0  0
  -18.7929   18.8721  -14.7232 C   0  0  0  0  0  0
  -18.0671   19.0019  -15.8391 N   0  0  0  0  0  0
  -17.8676   20.2837  -16.2593 C   0  0  0  0  0  0
  -18.3211   21.3822  -15.5474 C   0  0  0  0  0  0
  -18.9930   21.2748  -14.4116 N   0  0  0  0  0  0
  -19.2003   17.6470  -14.1570 C   0  0  0  0  0  0
  -18.7973   16.2008  -14.7408 N   0  0  0  0  0  0
  -18.1517   15.4802  -15.9660 C   0  0  0  0  0  0
  -17.4798   15.9870  -17.1340 C   0  0  0  0  0  0
  -16.8245   15.3975  -18.2341 C   0  0  0  0  0  0
  -16.7098   14.0617  -18.2146 C   0  0  0  0  0  0
  -15.7489   13.3233  -19.4269 Cl  0  0  0  0  0  0
  -17.3257   13.4061  -17.1442 C   0  0  0  0  0  0
  -18.0464   14.0873  -16.0503 C   0  0  0  0  0  0
  -20.0304   17.8461  -13.1249 N   0  0  0  0  0  0
  -21.3519   17.8741  -11.0043 H   0  0  0  0  0  0
  -19.3856   15.5495  -14.2260 H   0  0  0  0  0  0
  1  2  1  0  0  0
  2  3  1  0  0  0
  2  4  1  0  0  0
  4  5  1  0  0  0
  5  6  1  0  0  0
  6  7  1  0  0  0
  7  8  1  0  0  0
  7 26  1  0  0  0
  8  9  2  0  0  0
  8 25  1  0  0  0
  9 10  1  0  0  0
 10 11  2  0  0  0
 10 15  1  0  0  0
 11 12  1  0  0  0
 11 16  1  0  0  0
 12 13  2  0  0  0
 13 14  1  0  0  0
 14 15  2  0  0  0
 16 17  1  0  0  0
 16 25  2  0  0  0
 17 18  1  0  0  0
 17 27  1  0  0  0
 18 19  2  0  0  0
 18 24  1  0  0  0
 19 20  1  0  0  0
 20 21  2  0  0  0
 21 22  1  0  0  0
 21 23  1  0  0  0
 23 24  2  0  0  0
M  END
>  <CHROM.0>
37.51014797,-74.04070367,-163.65544088,63.42601937,-30.50368265,178.86306544
-35.96460470,-164.55383988

>  <CHROM.1>
-90.87439370,-170.70960149,-74.21962450,51.04157244,-7.40929864,-10.86844354
7.71401892,-19.13648374,18.43440436,-14.62500404,-2.41784854,-0.97943802
3.06360794

>  <Name>
F2359-0741

>  <RI>
1.48627e+07

>  <Rbt.Current_Directory>
/home/adria/Escritorio/rDock_CMTR_LC/2pxcA_model/inputs_sah

>  <Rbt.Executable>
rbdock ($Id: //depot/dev/client3/rdock/2013.1/src/exe/rbdock.cxx#4 $)

>  <Rbt.Library>
libRbt.so (2013.1, Build901 2013/11/27)

>  <Rbt.Parameter_File>
/home/adria/Escritorio/rDock_2013.1_src/data/scripts/dock.prm

>  <Rbt.Receptor>
sah_rdock.prm

>  <SCORE>
-54.1283

>  <SCORE.INTER>
-11.4658

>  <SCORE.INTER.CONST>
1

>  <SCORE.INTER.POLAR>
-0.798103

>  <SCORE.INTER.REPUL>
0.0331256

>  <SCORE.INTER.ROT>
7

>  <SCORE.INTER.VDW>
-21.3179

>  <SCORE.INTER.norm>
-0.458634

>  <SCORE.INTRA>
-39.5938

>  <SCORE.INTRA.DIHEDRAL>
-4.40092

>  <SCORE.INTRA.DIHEDRAL.0>
9.08204

>  <SCORE.INTRA.POLAR>
0

>  <SCORE.INTRA.POLAR.0>
0

>  <SCORE.INTRA.REPUL>
-0.972342

>  <SCORE.INTRA.REPUL.0>
0.972342

>  <SCORE.INTRA.VDW>
-32.5316

>  <SCORE.INTRA.VDW.0>
31.9032

>  <SCORE.INTRA.norm>
-1.58375

>  <SCORE.RESTR>
0

>  <SCORE.RESTR.CAVITY>
0

>  <SCORE.RESTR.norm>
0

>  <SCORE.SYSTEM>
-3.06863

>  <SCORE.SYSTEM.CONST>
0

>  <SCORE.SYSTEM.DIHEDRAL>
8.92365

>  <SCORE.SYSTEM.POLAR>
-3.94732

>  <SCORE.SYSTEM.REPUL>
0.171102

>  <SCORE.SYSTEM.VDW>
5.03493

>  <SCORE.SYSTEM.norm>
-0.122745

>  <SCORE.heavy>
25

>  <SCORE.norm>
-2.16513

$$$$
F2359-0741
  rDOCK(R)          3D
libRbt.so/2013.1/901 2013/11/27
 27 29  0  0  0  0  0  0  0  0999 V2000
  -24.3542   22.0912   -8.3639 C   0  0  0  0  0  0
  -24.7953   21.7575   -9.8080 N   0  0  0  0  0  0
  -25.4521   22.6099  -10.9357 C   0  0  0  0  0  0
  -25.0729   20.3956  -10.0874 C   0  0  0  0  0  0
  -23.7793   19.8476  -10.6652 C   0  0  0  0  0  0
  -23.9496   18.4205  -11.2309 C   0  0  0  0  0  0
  -22.7765   17.6875  -11.7877 N   0  0  0  0  0  0
  -21.6537   18.2179  -12.3831 C   0  0  0  0  0  0
  -21.0634   17.6264  -13.4202 N   0  0  0  0  0  0
  -20.0048   18.2253  -13.8762 C   0  0  0  0  0  0
  -19.4023   19.5180  -13.4971 C   0  0  0  0  0  0
  -18.2603   19.9656  -14.0304 N   0  0  0  0  0  0
  -17.6575   19.1189  -14.9130 C   0  0  0  0  0  0
  -18.2183   17.9093  -15.2895 C   0  0  0  0  0  0
  -19.3753   17.4750  -14.8145 N   0  0  0  0  0  0
  -20.1471   20.1793  -12.4994 C   0  0  0  0  0  0
  -19.7638   21.6194  -11.8879 N   0  0  0  0  0  0
  -20.3535   22.8684  -11.1602 C   0  0  0  0  0  0
  -19.7513   24.1040  -10.7322 C   0  0  0  0  0  0
  -20.2331   25.2862  -10.1343 C   0  0  0  0  0  0
  -21.5596   25.3671   -9.9564 C   0  0  0  0  0  0
  -22.2054   26.8615   -9.4199 Cl  0  0  0  0  0  0
  -22.2990   24.2346  -10.3112 C   0  0  0  0  0  0
  -21.7186   23.0036  -10.8838 C   0  0  0  0  0  0
  -21.1623   19.4174  -12.0719 N   0  0  0  0  0  0
  -22.5813   16.8026  -11.3394 H   0  0  0  0  0  0
  -18.8976   21.8698  -12.3594 H   0  0  0  0  0  0
  1  2  1  0  0  0
  2  3  1  0  0  0
  2  4  1  0  0  0
  4  5  1  0  0  0
  5  6  1  0  0  0
  6  7  1  0  0  0
  7  8  1  0  0  0
  7 26  1  0  0  0
  8  9  2  0  0  0
  8 25  1  0  0  0
  9 10  1  0  0  0
 10 11  2  0  0  0
 10 15  1  0  0  0
 11 12  1  0  0  0
 11 16  1  0  0  0
 12 13  2  0  0  0
 13 14  1  0  0  0
 14 15  2  0  0  0
 16 17  1  0  0  0
 16 25  2  0  0  0
 17 18  1  0  0  0
 17 27  1  0  0  0
 18 19  2  0  0  0
 18 24  1  0  0  0
 19 20  1  0  0  0
 20 21  2  0  0  0
 21 22  1  0  0  0
 21 23  1  0  0  0
 23 24  2  0  0  0
M  END
>  <CHROM.0>
41.40648870,67.27136860,76.85377131,63.32523495,168.48559542,-59.11576397
-158.35700915,-161.46096180

>  <CHROM.1>
-95.04976525,-171.38607632,-177.29051134,-28.94784173,-142.78364819,156.76469525
-178.19109581,-21.51848292,21.29066760,-11.59380929,1.96841905,0.47438249
0.37460745

>  <Name>
F2359-0741

>  <RI>
1.48627e+07

>  <Rbt.Current_Directory>
/home/adria/Escritorio/rDock_CMTR_LC/2pxcA_model/inputs_sah

>  <Rbt.Executable>
rbdock ($Id: //depot/dev/client3/rdock/2013.1/src/exe/rbdock.cxx#4 $)

>  <Rbt.Library>
libRbt.so (2013.1, Build901 2013/11/27)

>  <Rbt.Parameter_File>
/home/adria/Escritorio/rDock_2013.1_src/data/scripts/dock.prm

>  <Rbt.Receptor>
sah_rdock.prm

>  <SCORE>
-51.5327

>  <SCORE.INTER>
-13.265

>  <SCORE.INTER.CONST>
1

>  <SCORE.INTER.POLAR>
-1.657

>  <SCORE.INTER.REPUL>
0.0723928

>  <SCORE.INTER.ROT>
7

>  <SCORE.INTER.VDW>
-20.3931

>  <SCORE.INTER.norm>
-0.530598

>  <SCORE.INTRA>
-40.0956

>  <SCORE.INTRA.DIHEDRAL>
-2.56864

>  <SCORE.INTRA.DIHEDRAL.0>
9.08204

>  <SCORE.INTRA.POLAR>
0

>  <SCORE.INTRA.POLAR.0>
0

>  <SCORE.INTRA.REPUL>
-0.972342

>  <SCORE.INTRA.REPUL.0>
0.972342

>  <SCORE.INTRA.VDW>
-33.9495

>  <SCORE.INTRA.VDW.0>
31.9032

>  <SCORE.INTRA.norm>
-1.60382

>  <SCORE.RESTR>
0

>  <SCORE.RESTR.CAVITY>
0

>  <SCORE.RESTR.norm>
0

>  <SCORE.SYSTEM>
1.82788

>  <SCORE.SYSTEM.CONST>
0

>  <SCORE.SYSTEM.DIHEDRAL>
4.70366

>  <SCORE.SYSTEM.POLAR>
-3.60955

>  <SCORE.SYSTEM.REPUL>
0.118351

>  <SCORE.SYSTEM.VDW>
11.1568

>  <SCORE.SYSTEM.norm>
0.073115

>  <SCORE.heavy>
25

>  <SCORE.norm>
-2.06131

$$$$
F2359-0741
  rDOCK(R)          3D
libRbt.so/2013.1/901 2013/11/27
 27 29  0  0  0  0  0  0  0  0999 V2000
  -25.0408   23.9627   -9.5226 C   0  0  0  0  0  0
  -25.6421   24.0997  -10.9408 N   0  0  0  0  0  0
  -27.1026   24.2727  -11.4570 C   0  0  0  0  0  0
  -24.8726   23.5740  -12.0092 C   0  0  0  0  0  0
  -23.9312   24.7007  -12.3991 C   0  0  0  0  0  0
  -22.8967   24.2588  -13.4575 C   0  0  0  0  0  0
  -21.8080   23.3071  -13.0933 N   0  0  0  0  0  0
  -21.9021   21.9454  -12.9108 C   0  0  0  0  0  0
  -22.9566   21.3878  -12.3185 N   0  0  0  0  0  0
  -22.9105   20.0953  -12.1979 C   0  0  0  0  0  0
  -21.9213   19.1246  -12.7047 C   0  0  0  0  0  0
  -21.9907   17.8164  -12.4350 N   0  0  0  0  0  0
  -23.0114   17.4441  -11.6110 C   0  0  0  0  0  0
  -23.9559   18.3414  -11.1396 C   0  0  0  0  0  0
  -23.9357   19.6304  -11.4411 N   0  0  0  0  0  0
  -20.9024   19.7464  -13.4547 C   0  0  0  0  0  0
  -19.6873   18.9585  -14.1601 N   0  0  0  0  0  0
  -18.4540   19.1409  -15.0997 C   0  0  0  0  0  0
  -17.7522   20.3158  -15.5463 C   0  0  0  0  0  0
  -16.6059   20.5457  -16.3339 C   0  0  0  0  0  0
  -15.9308   19.4595  -16.7366 C   0  0  0  0  0  0
  -14.4266   19.6980  -17.5231 Cl  0  0  0  0  0  0
  -16.4906   18.2245  -16.3949 C   0  0  0  0  0  0
  -17.7305   18.0576  -15.6109 C   0  0  0  0  0  0
  -21.0332   21.0792  -13.4323 N   0  0  0  0  0  0
  -20.8868   23.5813  -13.4066 H   0  0  0  0  0  0
  -19.9906   17.9873  -14.1708 H   0  0  0  0  0  0
  1  2  1  0  0  0
  2  3  1  0  0  0
  2  4  1  0  0  0
  4  5  1  0  0  0
  5  6  1  0  0  0
  6  7  1  0  0  0
  7  8  1  0  0  0
  7 26  1  0  0  0
  8  9  2  0  0  0
  8 25  1  0  0  0
  9 10  1  0  0  0
 10 11  2  0  0  0
 10 15  1  0  0  0
 11 12  1  0  0  0
 11 16  1  0  0  0
 12 13  2  0  0  0
 13 14  1  0  0  0
 14 15  2  0  0  0
 16 17  1  0  0  0
 16 25  2  0  0  0
 17 18  1  0  0  0
 17 27  1  0  0  0
 18 19  2  0  0  0
 18 24  1  0  0  0
 19 20  1  0  0  0
 20 21  2  0  0  0
 21 22  1  0  0  0
 21 23  1  0  0  0
 23 24  2  0  0  0
M  END
>  <CHROM.0>
-61.50182111,-71.02621452,-165.27355565,62.90723635,168.43548002,179.29030438
-38.02754861,-165.86545184

>  <CHROM.1>
-86.43363452,173.68097891,-69.90909057,76.17035568,-38.44477699,174.77830930
14.24492442,-20.99247248,20.78395572,-13.55827230,-2.89429610,-0.57618722
2.97400384

>  <Name>
F2359-0741

>  <RI>
1.48627e+07

>  <Rbt.Current_Directory>
/home/adria/Escritorio/rDock_CMTR_LC/2pxcA_model/inputs_sah

>  <Rbt.Executable>
rbdock ($Id: //depot/dev/client3/rdock/2013.1/src/exe/rbdock.cxx#4 $)

>  <Rbt.Library>
libRbt.so (2013.1, Build901 2013/11/27)

>  <Rbt.Parameter_File>
/home/adria/Escritorio/rDock_2013.1_src/data/scripts/dock.prm

>  <Rbt.Receptor>
sah_rdock.prm

>  <SCORE>
-49.3517

>  <SCORE.INTER>
-6.71155

>  <SCORE.INTER.CONST>
1

>  <SCORE.INTER.POLAR>
0

>  <SCORE.INTER.REPUL>
0.112683

>  <SCORE.INTER.ROT>
7

>  <SCORE.INTER.VDW>
-19.675

>  <SCORE.INTER.norm>
-0.268462

>  <SCORE.INTRA>
-40.096

>  <SCORE.INTRA.DIHEDRAL>
-4.20267

>  <SCORE.INTRA.DIHEDRAL.0>
9.08204

>  <SCORE.INTRA.POLAR>
0

>  <SCORE.INTRA.POLAR.0>
0

>  <SCORE.INTRA.REPUL>
-0.972342

>  <SCORE.INTRA.REPUL.0>
0.972342

>  <SCORE.INTRA.VDW>
-33.133

>  <SCORE.INTRA.VDW.0>
31.9032

>  <SCORE.INTRA.norm>
-1.60384

>  <SCORE.RESTR>
0

>  <SCORE.RESTR.CAVITY>
0

>  <SCORE.RESTR.norm>
0

>  <SCORE.SYSTEM>
-2.54411

>  <SCORE.SYSTEM.CONST>
0

>  <SCORE.SYSTEM.DIHEDRAL>
3.1384

>  <SCORE.SYSTEM.POLAR>
-3.82154

>  <SCORE.SYSTEM.REPUL>
0.0348219

>  <SCORE.SYSTEM.VDW>
8.70582

>  <SCORE.SYSTEM.norm>
-0.101764

>  <SCORE.heavy>
25

>  <SCORE.norm>
-1.97407

$$$$
F2359-0741
  rDOCK(R)          3D
libRbt.so/2013.1/901 2013/11/27
 27 29  0  0  0  0  0  0  0  0999 V2000
  -26.0321   21.1452  -17.5712 C   0  0  0  0  0  0
  -25.2846   20.4925  -16.3851 N   0  0  0  0  0  0
  -24.2219   19.3552  -16.3031 C   0  0  0  0  0  0
  -25.9074   20.5855  -15.1149 C   0  0  0  0  0  0
  -25.8920   22.0680  -14.7839 C   0  0  0  0  0  0
  -26.2380   22.3405  -13.3035 C   0  0  0  0  0  0
  -25.2173   22.1177  -12.2395 N   0  0  0  0  0  0
  -24.1203   22.8961  -11.9446 C   0  0  0  0  0  0
  -24.1203   23.7510  -10.9233 N   0  0  0  0  0  0
  -23.0260   24.4329  -10.7662 C   0  0  0  0  0  0
  -21.7353   24.3425  -11.4758 C   0  0  0  0  0  0
  -20.7165   25.1730  -11.2285 N   0  0  0  0  0  0
  -20.9691   26.1490  -10.3104 C   0  0  0  0  0  0
  -22.1703   26.2374   -9.6258 C   0  0  0  0  0  0
  -23.1701   25.3908   -9.8166 N   0  0  0  0  0  0
  -21.7333   23.3210  -12.4473 C   0  0  0  0  0  0
  -20.4680   22.9553  -13.3746 N   0  0  0  0  0  0
  -19.9164   21.8959  -14.3800 C   0  0  0  0  0  0
  -18.6768   21.8163  -15.1076 C   0  0  0  0  0  0
  -18.0945   20.8673  -15.9722 C   0  0  0  0  0  0
  -18.7727   19.7238  -16.1468 C   0  0  0  0  0  0
  -18.0088   18.4667  -17.0267 Cl  0  0  0  0  0  0
  -20.0167   19.6426  -15.5135 C   0  0  0  0  0  0
  -20.5919   20.7034  -14.6628 C   0  0  0  0  0  0
  -22.9425   22.7547  -12.5530 N   0  0  0  0  0  0
  -25.5587   21.6258  -11.4249 H   0  0  0  0  0  0
  -19.6975   23.4794  -12.9660 H   0  0  0  0  0  0
  1  2  1  0  0  0
  2  3  1  0  0  0
  2  4  1  0  0  0
  4  5  1  0  0  0
  5  6  1  0  0  0
  6  7  1  0  0  0
  7  8  1  0  0  0
  7 26  1  0  0  0
  8  9  2  0  0  0
  8 25  1  0  0  0
  9 10  1  0  0  0
 10 11  2  0  0  0
 10 15  1  0  0  0
 11 12  1  0  0  0
 11 16  1  0  0  0
 12 13  2  0  0  0
 13 14  1  0  0  0
 14 15  2  0  0  0
 16 17  1  0  0  0
 16 25  2  0  0  0
 17 18  1  0  0  0
 17 27  1  0  0  0
 18 19  2  0  0  0
 18 24  1  0  0  0
 19 20  1  0  0  0
 20 21  2  0  0  0
 21 22  1  0  0  0
 21 23  1  0  0  0
 23 24  2  0  0  0
M  END
>  <CHROM.0>
-64.91447391,-69.77000212,74.82792780,-58.57564446,-31.22045146,-177.31826070
-36.28123903,-163.53800680

>  <CHROM.1>
-65.85209844,-167.06356903,77.39325478,74.44618541,100.98277919,169.19478431
179.78350081,-22.14452699,22.08366912,-13.80260261,1.11329419,0.02059001
-2.30431920

>  <Name>
F2359-0741

>  <RI>
1.48627e+07

>  <Rbt.Current_Directory>
/home/adria/Escritorio/rDock_CMTR_LC/2pxcA_model/inputs_sah

>  <Rbt.Executable>
rbdock ($Id: //depot/dev/client3/rdock/2013.1/src/exe/rbdock.cxx#4 $)

>  <Rbt.Library>
libRbt.so (2013.1, Build901 2013/11/27)

>  <Rbt.Parameter_File>
/home/adria/Escritorio/rDock_2013.1_src/data/scripts/dock.prm

>  <Rbt.Receptor>
sah_rdock.prm

>  <SCORE>
-52.4972

>  <SCORE.INTER>
-6.58364

>  <SCORE.INTER.CONST>
1

>  <SCORE.INTER.POLAR>
-0.278802

>  <SCORE.INTER.REPUL>
0.376745

>  <SCORE.INTER.ROT>
7

>  <SCORE.INTER.VDW>
-19.9194

>  <SCORE.INTER.norm>
-0.263346

>  <SCORE.INTRA>
-38.385

>  <SCORE.INTRA.DIHEDRAL>
-3.01925

>  <SCORE.INTRA.DIHEDRAL.0>
9.08204

>  <SCORE.INTRA.POLAR>
0

>  <SCORE.INTRA.POLAR.0>
0

>  <SCORE.INTRA.REPUL>
-0.972342

>  <SCORE.INTRA.REPUL.0>
0.972342

>  <SCORE.INTRA.VDW>
-32.0136

>  <SCORE.INTRA.VDW.0>
31.9032

>  <SCORE.INTRA.norm>
-1.5354

>  <SCORE.RESTR>
0

>  <SCORE.RESTR.CAVITY>
0

>  <SCORE.RESTR.norm>
0

>  <SCORE.SYSTEM>
-7.52861

>  <SCORE.SYSTEM.CONST>
0

>  <SCORE.SYSTEM.DIHEDRAL>
6.09724

>  <SCORE.SYSTEM.POLAR>
-4.03987

>  <SCORE.SYSTEM.REPUL>
0.0322648

>  <SCORE.SYSTEM.VDW>
2.997

>  <SCORE.SYSTEM.norm>
-0.301144

>  <SCORE.heavy>
25

>  <SCORE.norm>
-2.09989

$$$$
F2359-0741
  rDOCK(R)          3D
libRbt.so/2013.1/901 2013/11/27
 27 29  0  0  0  0  0  0  0  0999 V2000
  -18.3043   13.0330  -15.0086 C   0  0  0  0  0  0
  -18.1206   14.3718  -15.7604 N   0  0  0  0  0  0
  -18.6623   15.8106  -15.5039 C   0  0  0  0  0  0
  -17.7735   14.2860  -17.1323 C   0  0  0  0  0  0
  -16.2952   13.9364  -17.1364 C   0  0  0  0  0  0
  -15.6800   14.0121  -18.5511 C   0  0  0  0  0  0
  -15.5148   15.3296  -19.2296 N   0  0  0  0  0  0
  -15.5891   16.5846  -18.6676 C   0  0  0  0  0  0
  -14.5368   17.4001  -18.6296 N   0  0  0  0  0  0
  -14.7410   18.5487  -18.0584 C   0  0  0  0  0  0
  -15.9840   19.1446  -17.5315 C   0  0  0  0  0  0
  -16.0092   20.3283  -16.9095 N   0  0  0  0  0  0
  -14.7951   20.9269  -16.7453 C   0  0  0  0  0  0
  -13.6221   20.3869  -17.2471 C   0  0  0  0  0  0
  -13.5852   19.2438  -17.9141 N   0  0  0  0  0  0
  -17.1005   18.3071  -17.7297 C   0  0  0  0  0  0
  -18.6034   18.6810  -17.2866 N   0  0  0  0  0  0
  -19.4604   19.2282  -16.1020 C   0  0  0  0  0  0
  -19.1309   20.0865  -14.9942 C   0  0  0  0  0  0
  -19.8625   20.6647  -13.9370 C   0  0  0  0  0  0
  -21.1874   20.4589  -13.9455 C   0  0  0  0  0  0
  -22.1363   21.3064  -12.7969 Cl  0  0  0  0  0  0
  -21.6750   19.6270  -14.9580 C   0  0  0  0  0  0
  -20.8389   19.0075  -16.0055 C   0  0  0  0  0  0
  -16.7333   17.1318  -18.2568 N   0  0  0  0  0  0
  -14.9049   15.3146  -20.0357 H   0  0  0  0  0  0
  -19.1924   18.1509  -17.9247 H   0  0  0  0  0  0
  1  2  1  0  0  0
  2  3  1  0  0  0
  2  4  1  0  0  0
  4  5  1  0  0  0
  5  6  1  0  0  0
  6  7  1  0  0  0
  7  8  1  0  0  0
  7 26  1  0  0  0
  8  9  2  0  0  0
  8 25  1  0  0  0
  9 10  1  0  0  0
 10 11  2  0  0  0
 10 15  1  0  0  0
 11 12  1  0  0  0
 11 16  1  0  0  0
 12 13  2  0  0  0
 13 14  1  0  0  0
 14 15  2  0  0  0
 16 17  1  0  0  0
 16 25  2  0  0  0
 17 18  1  0  0  0
 17 27  1  0  0  0
 18 19  2  0  0  0
 18 24  1  0  0  0
 19 20  1  0  0  0
 20 21  2  0  0  0
 21 22  1  0  0  0
 21 23  1  0  0  0
 23 24  2  0  0  0
M  END
>  <CHROM.0>
-175.61406735,67.05688935,-5.70312669,67.88076064,37.06321039,169.61639792
-156.93731606,-159.20247188

>  <CHROM.1>
-76.88478353,-171.18888627,69.08642987,14.57318155,115.81004588,-47.84480150
26.25675379,-17.71144957,18.02645460,-16.42074928,0.63522107,-0.54598541
-3.00087374

>  <Name>
F2359-0741

>  <RI>
1.48627e+07

>  <Rbt.Current_Directory>
/home/adria/Escritorio/rDock_CMTR_LC/2pxcA_model/inputs_sah

>  <Rbt.Executable>
rbdock ($Id: //depot/dev/client3/rdock/2013.1/src/exe/rbdock.cxx#4 $)

>  <Rbt.Library>
libRbt.so (2013.1, Build901 2013/11/27)

>  <Rbt.Parameter_File>
/home/adria/Escritorio/rDock_2013.1_src/data/scripts/dock.prm

>  <Rbt.Receptor>
sah_rdock.prm

>  <SCORE>
-50.0946

>  <SCORE.INTER>
-17.401

>  <SCORE.INTER.CONST>
1

>  <SCORE.INTER.POLAR>
-1.90955

>  <SCORE.INTER.REPUL>
0

>  <SCORE.INTER.ROT>
7

>  <SCORE.INTER.VDW>
-23.3086

>  <SCORE.INTER.norm>
-0.696042

>  <SCORE.INTRA>
-38.3022

>  <SCORE.INTRA.DIHEDRAL>
0.835155

>  <SCORE.INTRA.DIHEDRAL.0>
9.08204

>  <SCORE.INTRA.POLAR>
0

>  <SCORE.INTRA.POLAR.0>
0

>  <SCORE.INTRA.REPUL>
-0.972342

>  <SCORE.INTRA.REPUL.0>
0.972342

>  <SCORE.INTRA.VDW>
-33.8581

>  <SCORE.INTRA.VDW.0>
31.9032

>  <SCORE.INTRA.norm>
-1.53209

>  <SCORE.RESTR>
0

>  <SCORE.RESTR.CAVITY>
0

>  <SCORE.RESTR.norm>
0

>  <SCORE.SYSTEM>
5.60864

>  <SCORE.SYSTEM.CONST>
0

>  <SCORE.SYSTEM.DIHEDRAL>
8.48366

>  <SCORE.SYSTEM.POLAR>
-3.9907

>  <SCORE.SYSTEM.VDW>
14.9352

>  <SCORE.SYSTEM.norm>
0.224346

>  <SCORE.heavy>
25

>  <SCORE.norm>
-2.00378

$$$$
F2359-0741
  rDOCK(R)          3D
libRbt.so/2013.1/901 2013/11/27
 27 29  0  0  0  0  0  0  0  0999 V2000
  -22.5361   23.4293  -10.9152 C   0  0  0  0  0  0
  -23.5589   22.3329  -10.5365 N   0  0  0  0  0  0
  -25.0755   22.3805  -10.1801 C   0  0  0  0  0  0
  -23.0314   21.1344   -9.9932 C   0  0  0  0  0  0
  -22.6191   20.3105  -11.2010 C   0  0  0  0  0  0
  -21.9567   18.9743  -10.7992 C   0  0  0  0  0  0
  -21.4378   18.0477  -11.8460 N   0  0  0  0  0  0
  -20.5471   18.3296  -12.8576 C   0  0  0  0  0  0
  -20.1709   19.5769  -13.1344 N   0  0  0  0  0  0
  -19.3371   19.7024  -14.1223 C   0  0  0  0  0  0
  -18.6527   18.6739  -14.9296 C   0  0  0  0  0  0
  -17.8622   18.9774  -15.9649 N   0  0  0  0  0  0
  -17.7729   20.3055  -16.2608 C   0  0  0  0  0  0
  -18.3975   21.2831  -15.5035 C   0  0  0  0  0  0
  -19.1385   21.0055  -14.4420 N   0  0  0  0  0  0
  -18.9655   17.3675  -14.5019 C   0  0  0  0  0  0
  -18.3626   16.0287  -15.1645 N   0  0  0  0  0  0
  -17.3854   15.5059  -16.2641 C   0  0  0  0  0  0
  -16.3673   16.1675  -17.0376 C   0  0  0  0  0  0
  -15.4165   15.7471  -17.9897 C   0  0  0  0  0  0
  -15.3507   14.4288  -18.2255 C   0  0  0  0  0  0
  -14.0788   13.8567  -19.2220 Cl  0  0  0  0  0  0
  -16.2892   13.6360  -17.5579 C   0  0  0  0  0  0
  -17.2976   14.1532  -16.6115 C   0  0  0  0  0  0
  -19.8891   17.3865  -13.5321 N   0  0  0  0  0  0
  -21.3918   17.0778  -11.5644 H   0  0  0  0  0  0
  -19.0393   15.3060  -14.9302 H   0  0  0  0  0  0
  1  2  1  0  0  0
  2  3  1  0  0  0
  2  4  1  0  0  0
  4  5  1  0  0  0
  5  6  1  0  0  0
  6  7  1  0  0  0
  7  8  1  0  0  0
  7 26  1  0  0  0
  8  9  2  0  0  0
  8 25  1  0  0  0
  9 10  1  0  0  0
 10 11  2  0  0  0
 10 15  1  0  0  0
 11 12  1  0  0  0
 11 16  1  0  0  0
 12 13  2  0  0  0
 13 14  1  0  0  0
 14 15  2  0  0  0
 16 17  1  0  0  0
 16 25  2  0  0  0
 17 18  1  0  0  0
 17 27  1  0  0  0
 18 19  2  0  0  0
 18 24  1  0  0  0
 19 20  1  0  0  0
 20 21  2  0  0  0
 21 22  1  0  0  0
 21 23  1  0  0  0
 23 24  2  0  0  0
M  END
>  <CHROM.0>
-60.40153151,66.03728193,-129.28538317,149.94907404,-31.27612121,-59.74691309
79.15928808,-164.00895817

>  <CHROM.1>
-83.11617810,177.52049157,-177.77115152,54.07053574,-9.84060533,1.71344939
13.95761430,-19.04981649,18.15301135,-14.54718292,-2.60541089,-0.79514953
3.07622248

>  <Name>
F2359-0741

>  <RI>
1.48627e+07

>  <Rbt.Current_Directory>
/home/adria/Escritorio/rDock_CMTR_LC/2pxcA_model/inputs_sah

>  <Rbt.Executable>
rbdock ($Id: //depot/dev/client3/rdock/2013.1/src/exe/rbdock.cxx#4 $)

>  <Rbt.Library>
libRbt.so (2013.1, Build901 2013/11/27)

>  <Rbt.Parameter_File>
/home/adria/Escritorio/rDock_2013.1_src/data/scripts/dock.prm

>  <Rbt.Receptor>
sah_rdock.prm

>  <SCORE>
-55.7956

>  <SCORE.INTER>
-12.1573

>  <SCORE.INTER.CONST>
1

>  <SCORE.INTER.POLAR>
-1.19066

>  <SCORE.INTER.REPUL>
0.0111162

>  <SCORE.INTER.ROT>
7

>  <SCORE.INTER.VDW>
-20.5646

>  <SCORE.INTER.norm>
-0.486293

>  <SCORE.INTRA>
-40.3337

>  <SCORE.INTRA.DIHEDRAL>
-5.25659

>  <SCORE.INTRA.DIHEDRAL.0>
9.08204

>  <SCORE.INTRA.POLAR>
0

>  <SCORE.INTRA.POLAR.0>
0

>  <SCORE.INTRA.REPUL>
-0.972342

>  <SCORE.INTRA.REPUL.0>
0.972342

>  <SCORE.INTRA.VDW>
-32.8437

>  <SCORE.INTRA.VDW.0>
31.9032

>  <SCORE.INTRA.norm>
-1.61335

>  <SCORE.RESTR>
0

>  <SCORE.RESTR.CAVITY>
0

>  <SCORE.RESTR.norm>
0

>  <SCORE.SYSTEM>
-3.30459

>  <SCORE.SYSTEM.CONST>
0

>  <SCORE.SYSTEM.DIHEDRAL>
11.7366

>  <SCORE.SYSTEM.POLAR>
-4.07162

>  <SCORE.SYSTEM.VDW>
4.67058

>  <SCORE.SYSTEM.norm>
-0.132184

>  <SCORE.heavy>
25

>  <SCORE.norm>
-2.23182

$$$$
F2359-0741
  rDOCK(R)          3D
libRbt.so/2013.1/901 2013/11/27
 27 29  0  0  0  0  0  0  0  0999 V2000
  -17.3740   15.8586  -17.7713 C   0  0  0  0  0  0
  -16.1640   16.8064  -17.6005 N   0  0  0  0  0  0
  -14.9673   17.1703  -18.5306 C   0  0  0  0  0  0
  -15.7749   17.1042  -16.2701 C   0  0  0  0  0  0
  -16.2184   18.5403  -16.0495 C   0  0  0  0  0  0
  -17.7298   18.6462  -15.7494 C   0  0  0  0  0  0
  -18.3159   17.9311  -14.5795 N   0  0  0  0  0  0
  -19.2745   18.3888  -13.7031 C   0  0  0  0  0  0
  -20.2499   17.6002  -13.2553 N   0  0  0  0  0  0
  -21.0950   18.1629  -12.4450 C   0  0  0  0  0  0
  -21.0941   19.5148  -11.8535 C   0  0  0  0  0  0
  -22.0862   19.9629  -11.0764 N   0  0  0  0  0  0
  -23.1307   19.1024  -10.9099 C   0  0  0  0  0  0
  -23.1391   17.8252  -11.4467 C   0  0  0  0  0  0
  -22.1414   17.3442  -12.1720 N   0  0  0  0  0  0
  -19.9621   20.2623  -12.2375 C   0  0  0  0  0  0
  -19.6584   21.7649  -11.7430 N   0  0  0  0  0  0
  -20.3312   23.0654  -11.2014 C   0  0  0  0  0  0
  -21.6872   23.3559  -10.8149 C   0  0  0  0  0  0
  -22.3421   24.4760  -10.2638 C   0  0  0  0  0  0
  -21.5671   25.5218   -9.9419 C   0  0  0  0  0  0
  -22.2897   26.8206   -9.0881 Cl  0  0  0  0  0  0
  -20.2119   25.4072  -10.2666 C   0  0  0  0  0  0
  -19.6013   24.2197  -10.8967 C   0  0  0  0  0  0
  -19.2211   19.5904  -13.1283 N   0  0  0  0  0  0
  -18.3398   16.9245  -14.6700 H   0  0  0  0  0  0
  -18.7565   21.9882  -12.1578 H   0  0  0  0  0  0
  1  2  1  0  0  0
  2  3  1  0  0  0
  2  4  1  0  0  0
  4  5  1  0  0  0
  5  6  1  0  0  0
  6  7  1  0  0  0
  7  8  1  0  0  0
  7 26  1  0  0  0
  8  9  2  0  0  0
  8 25  1  0  0  0
  9 10  1  0  0  0
 10 11  2  0  0  0
 10 15  1  0  0  0
 11 12  1  0  0  0
 11 16  1  0  0  0
 12 13  2  0  0  0
 13 14  1  0  0  0
 14 15  2  0  0  0
 16 17  1  0  0  0
 16 25  2  0  0  0
 17 18  1  0  0  0
 17 27  1  0  0  0
 18 19  2  0  0  0
 18 24  1  0  0  0
 19 20  1  0  0  0
 20 21  2  0  0  0
 21 22  1  0  0  0
 21 23  1  0  0  0
 23 24  2  0  0  0
M  END
>  <CHROM.0>
-62.07506633,-73.34319320,-161.99313659,62.03412120,32.51456979,-61.62801944
81.87497625,-43.29176014

>  <CHROM.1>
-107.00963226,79.15772797,58.67033554,139.45611139,139.76051668,-24.23237608
5.96530895,-19.88884013,20.49210512,-12.79343069,-1.01209810,0.64553955,0.34303252

>  <Name>
F2359-0741

>  <RI>
1.48627e+07

>  <Rbt.Current_Directory>
/home/adria/Escritorio/rDock_CMTR_LC/2pxcA_model/inputs_sah

>  <Rbt.Executable>
rbdock ($Id: //depot/dev/client3/rdock/2013.1/src/exe/rbdock.cxx#4 $)

>  <Rbt.Library>
libRbt.so (2013.1, Build901 2013/11/27)

>  <Rbt.Parameter_File>
/home/adria/Escritorio/rDock_2013.1_src/data/scripts/dock.prm

>  <Rbt.Receptor>
sah_rdock.prm

>  <SCORE>
-48.5068

>  <SCORE.INTER>
-16.3441

>  <SCORE.INTER.CONST>
1

>  <SCORE.INTER.POLAR>
-1.52204

>  <SCORE.INTER.REPUL>
0.200727

>  <SCORE.INTER.ROT>
7

>  <SCORE.INTER.VDW>
-24.5728

>  <SCORE.INTER.norm>
-0.653764

>  <SCORE.INTRA>
-38.9337

>  <SCORE.INTRA.DIHEDRAL>
-2.59716

>  <SCORE.INTRA.DIHEDRAL.0>
9.08204

>  <SCORE.INTRA.POLAR>
0

>  <SCORE.INTRA.POLAR.0>
0

>  <SCORE.INTRA.REPUL>
-0.972342

>  <SCORE.INTRA.REPUL.0>
0.972342

>  <SCORE.INTRA.VDW>
-32.7734

>  <SCORE.INTRA.VDW.0>
31.9032

>  <SCORE.INTRA.norm>
-1.55735

>  <SCORE.RESTR>
0

>  <SCORE.RESTR.CAVITY>
0

>  <SCORE.RESTR.norm>
0

>  <SCORE.SYSTEM>
6.77098

>  <SCORE.SYSTEM.CONST>
0

>  <SCORE.SYSTEM.DIHEDRAL>
8.07338

>  <SCORE.SYSTEM.POLAR>
-3.2945

>  <SCORE.SYSTEM.REPUL>
0.0679897

>  <SCORE.SYSTEM.VDW>
13.5957

>  <SCORE.SYSTEM.norm>
0.270839

>  <SCORE.heavy>
25

>  <SCORE.norm>
-1.94027

$$$$
F2359-0741
  rDOCK(R)          3D
libRbt.so/2013.1/901 2013/11/27
 27 29  0  0  0  0  0  0  0  0999 V2000
  -25.2719   23.9732  -11.6673 C   0  0  0  0  0  0
  -23.8433   23.5227  -12.0516 N   0  0  0  0  0  0
  -22.7674   24.1224  -13.0068 C   0  0  0  0  0  0
  -23.5470   22.1460  -11.8876 C   0  0  0  0  0  0
  -23.0615   22.0227  -10.4535 C   0  0  0  0  0  0
  -22.6188   20.5840  -10.1075 C   0  0  0  0  0  0
  -21.4752   19.9553  -10.8289 N   0  0  0  0  0  0
  -21.3292   19.7744  -12.1863 C   0  0  0  0  0  0
  -22.3775   19.5882  -12.9864 N   0  0  0  0  0  0
  -22.0972   19.4162  -14.2429 C   0  0  0  0  0  0
  -20.8053   19.4957  -14.9518 C   0  0  0  0  0  0
  -20.6802   19.2264  -16.2559 N   0  0  0  0  0  0
  -21.8222   18.8185  -16.8793 C   0  0  0  0  0  0
  -23.0447   18.7531  -16.2308 C   0  0  0  0  0  0
  -23.1987   19.0694  -14.9544 N   0  0  0  0  0  0
  -19.7462   19.8438  -14.0889 C   0  0  0  0  0  0
  -18.2176   20.0320  -14.5610 N   0  0  0  0  0  0
  -17.2101   19.6978  -15.7058 C   0  0  0  0  0  0
  -15.8063   19.9764  -15.8615 C   0  0  0  0  0  0
  -14.8330   19.6519  -16.8283 C   0  0  0  0  0  0
  -15.2271   18.8455  -17.8245 C   0  0  0  0  0  0
  -14.0303   18.2661  -18.9061 Cl  0  0  0  0  0  0
  -16.5789   18.4881  -17.8295 C   0  0  0  0  0  0
  -17.5590   18.9121  -16.8099 C   0  0  0  0  0  0
  -20.1638   19.9148  -12.8183 N   0  0  0  0  0  0
  -20.5821   20.0476  -10.3642 H   0  0  0  0  0  0
  -17.7116   20.2293  -13.7006 H   0  0  0  0  0  0
  1  2  1  0  0  0
  2  3  1  0  0  0
  2  4  1  0  0  0
  4  5  1  0  0  0
  5  6  1  0  0  0
  6  7  1  0  0  0
  7  8  1  0  0  0
  7 26  1  0  0  0
  8  9  2  0  0  0
  8 25  1  0  0  0
  9 10  1  0  0  0
 10 11  2  0  0  0
 10 15  1  0  0  0
 11 12  1  0  0  0
 11 16  1  0  0  0
 12 13  2  0  0  0
 13 14  1  0  0  0
 14 15  2  0  0  0
 16 17  1  0  0  0
 16 25  2  0  0  0
 17 18  1  0  0  0
 17 27  1  0  0  0
 18 19  2  0  0  0
 18 24  1  0  0  0
 19 20  1  0  0  0
 20 21  2  0  0  0
 21 22  1  0  0  0
 21 23  1  0  0  0
 23 24  2  0  0  0
M  END
>  <CHROM.0>
-174.81601140,-70.03821936,74.35492935,65.96066617,-31.75641432,60.15766490
-36.78924859,-53.59303005

>  <CHROM.1>
-88.03534123,-177.11454049,62.55378652,-56.39543120,-30.63204981,-18.53416574
-177.86642942,-19.99584538,20.11198795,-14.58805568,-2.45129830,-0.07459816
-2.14640513

>  <Name>
F2359-0741

>  <RI>
1.48627e+07

>  <Rbt.Current_Directory>
/home/adria/Escritorio/rDock_CMTR_LC/2pxcA_model/inputs_sah

>  <Rbt.Executable>
rbdock ($Id: //depot/dev/client3/rdock/2013.1/src/exe/rbdock.cxx#4 $)

>  <Rbt.Library>
libRbt.so (2013.1, Build901 2013/11/27)

>  <Rbt.Parameter_File>
/home/adria/Escritorio/rDock_2013.1_src/data/scripts/dock.prm

>  <Rbt.Receptor>
sah_rdock.prm

>  <SCORE>
-55.7601

>  <SCORE.INTER>
-9.86304

>  <SCORE.INTER.CONST>
1

>  <SCORE.INTER.POLAR>
-0.956638

>  <SCORE.INTER.REPUL>
0.168512

>  <SCORE.INTER.ROT>
7

>  <SCORE.INTER.VDW>
-19.853

>  <SCORE.INTER.norm>
-0.394522

>  <SCORE.INTRA>
-40.7286

>  <SCORE.INTRA.DIHEDRAL>
-4.38535

>  <SCORE.INTRA.DIHEDRAL.0>
9.08204

>  <SCORE.INTRA.POLAR>
0

>  <SCORE.INTRA.POLAR.0>
0

>  <SCORE.INTRA.REPUL>
-0.972342

>  <SCORE.INTRA.REPUL.0>
0.972342

>  <SCORE.INTRA.VDW>
-33.6742

>  <SCORE.INTRA.VDW.0>
31.9032

>  <SCORE.INTRA.norm>
-1.62914

>  <SCORE.RESTR>
0

>  <SCORE.RESTR.CAVITY>
0

>  <SCORE.RESTR.norm>
0

>  <SCORE.SYSTEM>
-5.16841

>  <SCORE.SYSTEM.CONST>
0

>  <SCORE.SYSTEM.DIHEDRAL>
8.8266

>  <SCORE.SYSTEM.POLAR>
-3.6437

>  <SCORE.SYSTEM.REPUL>
0.0353914

>  <SCORE.SYSTEM.VDW>
2.62991

>  <SCORE.SYSTEM.norm>
-0.206736

>  <SCORE.heavy>
25

>  <SCORE.norm>
-2.2304

$$$$
F2359-0741
  rDOCK(R)          3D
libRbt.so/2013.1/901 2013/11/27
 27 29  0  0  0  0  0  0  0  0999 V2000
  -22.3136   25.5829  -12.0534 C   0  0  0  0  0  0
  -21.9450   24.1129  -12.3611 N   0  0  0  0  0  0
  -20.6070   23.3183  -12.2722 C   0  0  0  0  0  0
  -22.7897   23.4238  -13.2675 C   0  0  0  0  0  0
  -23.9215   22.8857  -12.4089 C   0  0  0  0  0  0
  -23.4434   21.7907  -11.4301 C   0  0  0  0  0  0
  -23.2413   20.3923  -11.9068 N   0  0  0  0  0  0
  -22.8003   19.9766  -13.1433 C   0  0  0  0  0  0
  -23.6479   19.6412  -14.1145 N   0  0  0  0  0  0
  -23.0984   19.2534  -15.2257 C   0  0  0  0  0  0
  -21.6788   19.2205  -15.6274 C   0  0  0  0  0  0
  -21.2728   18.7269  -16.8023 N   0  0  0  0  0  0
  -22.2577   18.2034  -17.5867 C   0  0  0  0  0  0
  -23.5957   18.2404  -17.2296 C   0  0  0  0  0  0
  -24.0223   18.7750  -16.0959 N   0  0  0  0  0  0
  -20.8300   19.7264  -14.6219 C   0  0  0  0  0  0
  -19.2297   19.8447  -14.7622 N   0  0  0  0  0  0
  -18.0111   19.3902  -15.6257 C   0  0  0  0  0  0
  -17.9315   18.7073  -16.8906 C   0  0  0  0  0  0
  -16.8782   18.3274  -17.7470 C   0  0  0  0  0  0
  -15.6471   18.7205  -17.3895 C   0  0  0  0  0  0
  -14.3683   18.4546  -18.4994 Cl  0  0  0  0  0  0
  -15.5454   19.3912  -16.1668 C   0  0  0  0  0  0
  -16.6903   19.7084  -15.2901 C   0  0  0  0  0  0
  -21.5194   20.0158  -13.5106 N   0  0  0  0  0  0
  -23.0026   19.7303  -11.1809 H   0  0  0  0  0  0
  -18.9152   20.1112  -13.8320 H   0  0  0  0  0  0
  1  2  1  0  0  0
  2  3  1  0  0  0
  2  4  1  0  0  0
  4  5  1  0  0  0
  5  6  1  0  0  0
  6  7  1  0  0  0
  7  8  1  0  0  0
  7 26  1  0  0  0
  8  9  2  0  0  0
  8 25  1  0  0  0
  9 10  1  0  0  0
 10 11  2  0  0  0
 10 15  1  0  0  0
 11 12  1  0  0  0
 11 16  1  0  0  0
 12 13  2  0  0  0
 13 14  1  0  0  0
 14 15  2  0  0  0
 16 17  1  0  0  0
 16 25  2  0  0  0
 17 18  1  0  0  0
 17 27  1  0  0  0
 18 19  2  0  0  0
 18 24  1  0  0  0
 19 20  1  0  0  0
 20 21  2  0  0  0
 21 22  1  0  0  0
 21 23  1  0  0  0
 23 24  2  0  0  0
M  END
>  <CHROM.0>
39.43953971,69.06997571,-7.24802212,62.72560966,168.32748913,61.12156212
81.29194785,-162.16679296

>  <CHROM.1>
-85.53952896,-67.56864468,-79.88000369,34.00203101,-95.09548940,-13.36446533
9.37546042,-20.36155975,20.20237672,-15.02339599,-2.47156660,-0.18075544
-2.42871077

>  <Name>
F2359-0741

>  <RI>
1.48627e+07

>  <Rbt.Current_Directory>
/home/adria/Escritorio/rDock_CMTR_LC/2pxcA_model/inputs_sah

>  <Rbt.Executable>
rbdock ($Id: //depot/dev/client3/rdock/2013.1/src/exe/rbdock.cxx#4 $)

>  <Rbt.Library>
libRbt.so (2013.1, Build901 2013/11/27)

>  <Rbt.Parameter_File>
/home/adria/Escritorio/rDock_2013.1_src/data/scripts/dock.prm

>  <Rbt.Receptor>
sah_rdock.prm

>  <SCORE>
-44.191

>  <SCORE.INTER>
-6.33113

>  <SCORE.INTER.CONST>
1

>  <SCORE.INTER.POLAR>
0

>  <SCORE.INTER.REPUL>
0.0499251

>  <SCORE.INTER.ROT>
7

>  <SCORE.INTER.VDW>
-18.9808

>  <SCORE.INTER.norm>
-0.253245

>  <SCORE.INTRA>
-40.2723

>  <SCORE.INTRA.DIHEDRAL>
-3.79215

>  <SCORE.INTRA.DIHEDRAL.0>
9.08204

>  <SCORE.INTRA.POLAR>
0

>  <SCORE.INTRA.POLAR.0>
0

>  <SCORE.INTRA.REPUL>
-0.972342

>  <SCORE.INTRA.REPUL.0>
0.972342

>  <SCORE.INTRA.VDW>
-33.5145

>  <SCORE.INTRA.VDW.0>
31.9032

>  <SCORE.INTRA.norm>
-1.61089

>  <SCORE.RESTR>
0

>  <SCORE.RESTR.CAVITY>
0

>  <SCORE.RESTR.norm>
0

>  <SCORE.SYSTEM>
2.41243

>  <SCORE.SYSTEM.CONST>
0

>  <SCORE.SYSTEM.DIHEDRAL>
7.91182

>  <SCORE.SYSTEM.POLAR>
-4.06678

>  <SCORE.SYSTEM.REPUL>
0.125012

>  <SCORE.SYSTEM.VDW>
11.6585

>  <SCORE.SYSTEM.norm>
0.0964971

>  <SCORE.heavy>
25

>  <SCORE.norm>
-1.76764

$$$$
F2359-0741
  rDOCK(R)          3D
libRbt.so/2013.1/901 2013/11/27
 27 29  0  0  0  0  0  0  0  0999 V2000
  -24.4338   24.3013  -12.6964 C   0  0  0  0  0  0
  -23.4493   24.6863  -11.5676 N   0  0  0  0  0  0
  -22.2617   25.6935  -11.4995 C   0  0  0  0  0  0
  -23.2523   23.7262  -10.5432 C   0  0  0  0  0  0
  -24.2666   24.0894   -9.4723 C   0  0  0  0  0  0
  -24.2414   23.1029   -8.2841 C   0  0  0  0  0  0
  -24.7255   21.7033   -8.4585 N   0  0  0  0  0  0
  -24.4528   20.8378   -9.4943 C   0  0  0  0  0  0
  -25.4090   20.1160  -10.0761 N   0  0  0  0  0  0
  -25.0120   19.3296  -11.0307 C   0  0  0  0  0  0
  -23.6815   19.1781  -11.6508 C   0  0  0  0  0  0
  -23.4250   18.2651  -12.5940 N   0  0  0  0  0  0
  -24.4661   17.4425  -12.9080 C   0  0  0  0  0  0
  -25.7243   17.5820  -12.3452 C   0  0  0  0  0  0
  -26.0120   18.5153  -11.4512 N   0  0  0  0  0  0
  -22.7360   20.0697  -11.1047 C   0  0  0  0  0  0
  -21.2009   20.1669  -11.5830 N   0  0  0  0  0  0
  -20.2718   20.0901  -12.8353 C   0  0  0  0  0  0
  -18.8507   19.9014  -12.9669 C   0  0  0  0  0  0
  -17.9666   19.7599  -14.0557 C   0  0  0  0  0  0
  -18.5233   19.7179  -15.2748 C   0  0  0  0  0  0
  -17.5085   19.3472  -16.6056 Cl  0  0  0  0  0  0
  -19.9085   19.9012  -15.3262 C   0  0  0  0  0  0
  -20.7693   20.1004  -14.1432 C   0  0  0  0  0  0
  -23.2601   20.7622  -10.0850 N   0  0  0  0  0  0
  -24.9078   21.2101   -7.5950 H   0  0  0  0  0  0
  -20.6630   19.9777  -10.7403 H   0  0  0  0  0  0
  1  2  1  0  0  0
  2  3  1  0  0  0
  2  4  1  0  0  0
  4  5  1  0  0  0
  5  6  1  0  0  0
  6  7  1  0  0  0
  7  8  1  0  0  0
  7 26  1  0  0  0
  8  9  2  0  0  0
  8 25  1  0  0  0
  9 10  1  0  0  0
 10 11  2  0  0  0
 10 15  1  0  0  0
 11 12  1  0  0  0
 11 16  1  0  0  0
 12 13  2  0  0  0
 13 14  1  0  0  0
 14 15  2  0  0  0
 16 17  1  0  0  0
 16 25  2  0  0  0
 17 18  1  0  0  0
 17 27  1  0  0  0
 18 19  2  0  0  0
 18 24  1  0  0  0
 19 20  1  0  0  0
 20 21  2  0  0  0
 21 22  1  0  0  0
 21 23  1  0  0  0
 23 24  2  0  0  0
M  END
>  <CHROM.0>
41.60352523,-166.40604739,75.97153622,-60.43021278,-29.92948090,-56.83623347
83.73139780,-51.89205915

>  <CHROM.1>
-92.32689091,177.58248670,-69.41614359,44.87116647,-134.39340832,37.06189075
-162.77716765,-22.35908215,20.73222007,-12.16043688,-2.63870051,-0.60304660
-2.80744410

>  <Name>
F2359-0741

>  <RI>
1.48627e+07

>  <Rbt.Current_Directory>
/home/adria/Escritorio/rDock_CMTR_LC/2pxcA_model/inputs_sah

>  <Rbt.Executable>
rbdock ($Id: //depot/dev/client3/rdock/2013.1/src/exe/rbdock.cxx#4 $)

>  <Rbt.Library>
libRbt.so (2013.1, Build901 2013/11/27)

>  <Rbt.Parameter_File>
/home/adria/Escritorio/rDock_2013.1_src/data/scripts/dock.prm

>  <Rbt.Receptor>
sah_rdock.prm

>  <SCORE>
-44.2646

>  <SCORE.INTER>
-6.34092

>  <SCORE.INTER.CONST>
1

>  <SCORE.INTER.POLAR>
-0.856064

>  <SCORE.INTER.REPUL>
0

>  <SCORE.INTER.ROT>
7

>  <SCORE.INTER.VDW>
-15.8303

>  <SCORE.INTER.norm>
-0.253637

>  <SCORE.INTRA>
-38.1479

>  <SCORE.INTRA.DIHEDRAL>
0.828333

>  <SCORE.INTRA.DIHEDRAL.0>
9.08204

>  <SCORE.INTRA.POLAR>
0

>  <SCORE.INTRA.POLAR.0>
0

>  <SCORE.INTRA.REPUL>
-0.972342

>  <SCORE.INTRA.REPUL.0>
0.972342

>  <SCORE.INTRA.VDW>
-33.7004

>  <SCORE.INTRA.VDW.0>
31.9032

>  <SCORE.INTRA.norm>
-1.52592

>  <SCORE.RESTR>
0

>  <SCORE.RESTR.CAVITY>
0

>  <SCORE.RESTR.norm>
0

>  <SCORE.SYSTEM>
0.224254

>  <SCORE.SYSTEM.CONST>
0

>  <SCORE.SYSTEM.DIHEDRAL>
10.841

>  <SCORE.SYSTEM.POLAR>
-3.33263

>  <SCORE.SYSTEM.REPUL>
0.124565

>  <SCORE.SYSTEM.VDW>
5.51189

>  <SCORE.SYSTEM.norm>
0.00897014

>  <SCORE.heavy>
25

>  <SCORE.norm>
-1.77058

$$$$
F2359-0741
  rDOCK(R)          3D
libRbt.so/2013.1/901 2013/11/27
 27 29  0  0  0  0  0  0  0  0999 V2000
  -26.0639   22.0500  -14.2400 C   0  0  0  0  0  0
  -25.1939   22.9456  -13.3274 N   0  0  0  0  0  0
  -24.1517   24.0647  -13.6287 C   0  0  0  0  0  0
  -24.9245   22.4523  -12.0259 C   0  0  0  0  0  0
  -25.9961   23.0740  -11.1469 C   0  0  0  0  0  0
  -25.4515   23.4813   -9.7601 C   0  0  0  0  0  0
  -24.4248   24.5562   -9.6416 N   0  0  0  0  0  0
  -23.0894   24.4890   -9.9708 C   0  0  0  0  0  0
  -22.1969   25.3351   -9.4594 N   0  0  0  0  0  0
  -20.9742   25.1695   -9.8653 C   0  0  0  0  0  0
  -20.3885   24.1252  -10.7279 C   0  0  0  0  0  0
  -19.1051   24.1365  -11.1042 N   0  0  0  0  0  0
  -18.3824   25.2122  -10.6801 C   0  0  0  0  0  0
  -18.9144   26.1923   -9.8582 C   0  0  0  0  0  0
  -20.1670   26.1688   -9.4298 N   0  0  0  0  0  0
  -21.3425   23.1654  -11.1230 C   0  0  0  0  0  0
  -21.0133   21.8884  -12.0480 N   0  0  0  0  0  0
  -20.0390   21.3540  -13.1446 C   0  0  0  0  0  0
  -19.4297   20.0647  -13.3423 C   0  0  0  0  0  0
  -18.6011   19.5021  -14.3343 C   0  0  0  0  0  0
  -18.3359   20.2736  -15.3984 C   0  0  0  0  0  0
  -17.5017   19.5612  -16.7154 Cl  0  0  0  0  0  0
  -18.8469   21.5745  -15.3587 C   0  0  0  0  0  0
  -19.6651   22.1175  -14.2561 C   0  0  0  0  0  0
  -22.5676   23.5009  -10.6979 N   0  0  0  0  0  0
  -24.7868   25.4959   -9.7307 H   0  0  0  0  0  0
  -21.8867   21.3673  -12.0766 H   0  0  0  0  0  0
  1  2  1  0  0  0
  2  3  1  0  0  0
  2  4  1  0  0  0
  4  5  1  0  0  0
  5  6  1  0  0  0
  6  7  1  0  0  0
  7  8  1  0  0  0
  7 26  1  0  0  0
  8  9  2  0  0  0
  8 25  1  0  0  0
  9 10  1  0  0  0
 10 11  2  0  0  0
 10 15  1  0  0  0
 11 12  1  0  0  0
 11 16  1  0  0  0
 12 13  2  0  0  0
 13 14  1  0  0  0
 14 15  2  0  0  0
 16 17  1  0  0  0
 16 25  2  0  0  0
 17 18  1  0  0  0
 17 27  1  0  0  0
 18 19  2  0  0  0
 18 24  1  0  0  0
 19 20  1  0  0  0
 20 21  2  0  0  0
 21 22  1  0  0  0
 21 23  1  0  0  0
 23 24  2  0  0  0
M  END
>  <CHROM.0>
-51.85017394,-168.12472608,72.57860812,64.53569631,-31.60862609,58.26759088
-36.41411853,-159.15500958

>  <CHROM.1>
-94.48914923,-141.77217181,65.16451474,-73.38933688,-158.98293068,-26.02157858
139.88434343,-21.33223680,22.85962769,-12.33144472,2.27085743,0.03850622
0.85001512

>  <Name>
F2359-0741

>  <RI>
1.48627e+07

>  <Rbt.Current_Directory>
/home/adria/Escritorio/rDock_CMTR_LC/2pxcA_model/inputs_sah

>  <Rbt.Executable>
rbdock ($Id: //depot/dev/client3/rdock/2013.1/src/exe/rbdock.cxx#4 $)

>  <Rbt.Library>
libRbt.so (2013.1, Build901 2013/11/27)

>  <Rbt.Parameter_File>
/home/adria/Escritorio/rDock_2013.1_src/data/scripts/dock.prm

>  <Rbt.Receptor>
sah_rdock.prm

>  <SCORE>
-52.7106

>  <SCORE.INTER>
-10.988

>  <SCORE.INTER.CONST>
1

>  <SCORE.INTER.POLAR>
-1.70572

>  <SCORE.INTER.REPUL>
0.679701

>  <SCORE.INTER.ROT>
7

>  <SCORE.INTER.VDW>
-20.987

>  <SCORE.INTER.norm>
-0.439519

>  <SCORE.INTRA>
-35.3722

>  <SCORE.INTRA.DIHEDRAL>
7.22721

>  <SCORE.INTRA.DIHEDRAL.0>
9.08204

>  <SCORE.INTRA.POLAR>
0

>  <SCORE.INTRA.POLAR.0>
0

>  <SCORE.INTRA.REPUL>
-0.972342

>  <SCORE.INTRA.REPUL.0>
0.972342

>  <SCORE.INTRA.VDW>
-34.1241

>  <SCORE.INTRA.VDW.0>
31.9032

>  <SCORE.INTRA.norm>
-1.41489

>  <SCORE.RESTR>
0

>  <SCORE.RESTR.CAVITY>
0

>  <SCORE.RESTR.norm>
0

>  <SCORE.SYSTEM>
-6.35037

>  <SCORE.SYSTEM.CONST>
0

>  <SCORE.SYSTEM.DIHEDRAL>
6.59337

>  <SCORE.SYSTEM.POLAR>
-3.76578

>  <SCORE.SYSTEM.VDW>
3.15658

>  <SCORE.SYSTEM.norm>
-0.254015

>  <SCORE.heavy>
25

>  <SCORE.norm>
-2.10842

$$$$
