F3284-1643
  rDOCK(R)          3D
libRbt.so/2013.1/901 2013/11/27
 28 30  0  0  0  0  0  0  0  0999 V2000
  -14.3775   18.0935  -17.0815 C   0  0  0  0  0  0
  -14.3459   16.6634  -17.5202 C   0  0  0  0  0  0
  -15.1372   16.2010  -18.5882 O   0  0  0  0  0  0
  -16.4933   16.0563  -18.3828 C   0  0  0  0  0  0
  -17.3987   16.9978  -17.8835 C   0  0  0  0  0  0
  -17.3620   18.4675  -18.0502 C   0  0  0  0  0  0
  -18.1599   19.4433  -17.6924 N   0  0  0  0  0  0
  -19.4043   19.3725  -17.0942 N   0  0  0  0  0  0
  -19.8803   19.8267  -15.8307 C   0  0  0  0  0  0
  -21.1163   19.7510  -15.4207 C   0  0  0  0  0  0
  -22.3569   18.9344  -16.3578 Cl  0  0  0  0  0  0
  -21.5610   20.3697  -14.1320 C   0  0  0  0  0  0
  -22.6561   20.0933  -13.6384 O   0  0  0  0  0  0
  -20.6765   21.2676  -13.5556 N   0  3  0  0  0  0
  -21.0899   22.0504  -12.3471 C   0  0  0  0  0  0
  -21.8383   23.3667  -12.5157 C   0  0  0  0  0  0
  -21.3855   24.6024  -12.0470 C   0  0  0  0  0  0
  -22.1894   25.7577  -12.1017 C   0  0  0  0  0  0
  -23.4364   25.7286  -12.7032 C   0  0  0  0  0  0
  -23.8490   24.5548  -13.3153 C   0  0  0  0  0  0
  -23.0728   23.3860  -13.2040 C   0  0  0  0  0  0
  -19.3165   21.1004  -13.7484 N   0  0  0  0  0  0
  -18.9805   20.3457  -14.7669 C   0  0  0  0  0  0
  -18.5281   16.5548  -17.1551 C   0  0  0  0  0  0
  -18.8996   15.2190  -17.1631 C   0  0  0  0  0  0
  -18.1304   14.3324  -17.8904 C   0  0  0  0  0  0
  -16.9365   14.7375  -18.4949 C   0  0  0  0  0  0
  -20.1631   19.1566  -17.7438 H   0  0  0  0  0  0
  1  2  1  0  0  0
  2  3  1  0  0  0
  3  4  1  0  0  0
  4  5  2  0  0  0
  4 27  1  0  0  0
  5  6  1  0  0  0
  5 24  1  0  0  0
  6  7  2  0  0  0
  7  8  1  0  0  0
  8  9  1  0  0  0
  8 28  1  0  0  0
  9 10  2  0  0  0
  9 23  1  0  0  0
 10 11  1  0  0  0
 10 12  1  0  0  0
 12 13  2  0  0  0
 12 14  1  0  0  0
 14 15  1  0  0  0
 14 22  1  0  0  0
 15 16  1  0  0  0
 16 17  2  0  0  0
 16 21  1  0  0  0
 17 18  1  0  0  0
 18 19  2  0  0  0
 19 20  1  0  0  0
 20 21  2  0  0  0
 22 23  2  0  0  0
 24 25  2  0  0  0
 25 26  1  0  0  0
 26 27  2  0  0  0
M  END
>  <CHROM.0>
-60.65655650,-169.21763516,72.12782551,65.12905287,-30.05302451,59.60591604
-35.99677756,-162.48497635

>  <CHROM.1>
-73.48501358,52.39161020,176.54531007,117.06108338,176.20155159,-86.37250277
-120.35369034,-19.68954023,19.67697244,-15.57439737,-0.98728151,0.11212769
0.52956558

>  <Name>
F3284-1643

>  <RI>
4.14007e+07

>  <Rbt.Current_Directory>
/home/adria/Escritorio/rDock_CMTR_LC/2pxcA_model/inputs_sah

>  <Rbt.Executable>
rbdock ($Id: //depot/dev/client3/rdock/2013.1/src/exe/rbdock.cxx#4 $)

>  <Rbt.Library>
libRbt.so (2013.1, Build901 2013/11/27)

>  <Rbt.Parameter_File>
/home/adria/Escritorio/rDock_2013.1_src/data/scripts/dock.prm

>  <Rbt.Receptor>
sah_rdock.prm

>  <SCORE>
-64.6288

>  <SCORE.INTER>
-14.4536

>  <SCORE.INTER.CONST>
1

>  <SCORE.INTER.POLAR>
-0.630794

>  <SCORE.INTER.REPUL>
0

>  <SCORE.INTER.ROT>
7

>  <SCORE.INTER.VDW>
-24.7089

>  <SCORE.INTER.norm>
-0.535318

>  <SCORE.INTRA>
-43.5494

>  <SCORE.INTRA.DIHEDRAL>
-93.1947

>  <SCORE.INTRA.DIHEDRAL.0>
107.708

>  <SCORE.INTRA.POLAR>
0

>  <SCORE.INTRA.POLAR.0>
0

>  <SCORE.INTRA.REPUL>
0

>  <SCORE.INTRA.REPUL.0>
0

>  <SCORE.INTRA.VDW>
3.04793

>  <SCORE.INTRA.VDW.0>
-5.40071

>  <SCORE.INTRA.norm>
-1.61294

>  <SCORE.RESTR>
0

>  <SCORE.RESTR.CAVITY>
0

>  <SCORE.RESTR.norm>
0

>  <SCORE.SYSTEM>
-6.62575

>  <SCORE.SYSTEM.CONST>
0

>  <SCORE.SYSTEM.DIHEDRAL>
6.30993

>  <SCORE.SYSTEM.POLAR>
-3.77261

>  <SCORE.SYSTEM.VDW>
3.04616

>  <SCORE.SYSTEM.norm>
-0.245398

>  <SCORE.heavy>
27

>  <SCORE.norm>
-2.39366

$$$$
F3284-1643
  rDOCK(R)          3D
libRbt.so/2013.1/901 2013/11/27
 28 30  0  0  0  0  0  0  0  0999 V2000
  -18.0195   24.9799   -9.7539 C   0  0  0  0  0  0
  -19.1802   24.5150  -10.5757 C   0  0  0  0  0  0
  -20.3144   25.3237  -10.7757 O   0  0  0  0  0  0
  -21.3711   24.8027  -11.4927 C   0  0  0  0  0  0
  -21.4182   23.6110  -12.2229 C   0  0  0  0  0  0
  -20.7063   22.3454  -11.9389 C   0  0  0  0  0  0
  -19.9384   21.5553  -12.6479 N   0  0  0  0  0  0
  -19.6222   21.6287  -13.9918 N   0  0  0  0  0  0
  -19.2866   20.6264  -14.9469 C   0  0  0  0  0  0
  -19.1438   19.3563  -14.6863 C   0  0  0  0  0  0
  -19.4877   18.6901  -13.0982 Cl  0  0  0  0  0  0
  -18.6618   18.3865  -15.7199 C   0  0  0  0  0  0
  -18.7576   17.1702  -15.5445 O   0  0  0  0  0  0
  -18.0986   18.9447  -16.8565 N   0  3  0  0  0  0
  -17.4531   18.0615  -17.8800 C   0  0  0  0  0  0
  -16.8103   16.7484  -17.4513 C   0  0  0  0  0  0
  -17.2151   15.4860  -17.8920 C   0  0  0  0  0  0
  -16.6805   14.3022  -17.3470 C   0  0  0  0  0  0
  -15.6658   14.3474  -16.4059 C   0  0  0  0  0  0
  -15.1355   15.5818  -16.0627 C   0  0  0  0  0  0
  -15.7134   16.7650  -16.5600 C   0  0  0  0  0  0
  -18.5387   20.1808  -17.2961 N   0  0  0  0  0  0
  -19.1710   20.9038  -16.4031 C   0  0  0  0  0  0
  -22.2574   23.5271  -13.3591 C   0  0  0  0  0  0
  -23.2268   24.4889  -13.5991 C   0  0  0  0  0  0
  -23.3417   25.5361  -12.7064 C   0  0  0  0  0  0
  -22.4260   25.7008  -11.6628 C   0  0  0  0  0  0
  -19.8816   22.5151  -14.4294 H   0  0  0  0  0  0
  1  2  1  0  0  0
  2  3  1  0  0  0
  3  4  1  0  0  0
  4  5  2  0  0  0
  4 27  1  0  0  0
  5  6  1  0  0  0
  5 24  1  0  0  0
  6  7  2  0  0  0
  7  8  1  0  0  0
  8  9  1  0  0  0
  8 28  1  0  0  0
  9 10  2  0  0  0
  9 23  1  0  0  0
 10 11  1  0  0  0
 10 12  1  0  0  0
 12 13  2  0  0  0
 12 14  1  0  0  0
 14 15  1  0  0  0
 14 22  1  0  0  0
 15 16  1  0  0  0
 16 17  2  0  0  0
 16 21  1  0  0  0
 17 18  1  0  0  0
 18 19  2  0  0  0
 19 20  1  0  0  0
 20 21  2  0  0  0
 22 23  2  0  0  0
 24 25  2  0  0  0
 25 26  1  0  0  0
 26 27  2  0  0  0
M  END
>  <CHROM.0>
173.79668278,-74.70613422,-46.71838999,65.24156179,-31.51645215,-58.26604386
83.21920831,-162.53500526

>  <CHROM.1>
-176.99657180,-9.37538675,-128.16584541,-150.82431857,-3.75422379,-29.55608673
118.51237432,-19.18174983,20.44026249,-14.28966518,-2.13279557,0.71086723
-2.20319274

>  <Name>
F3284-1643

>  <RI>
4.14007e+07

>  <Rbt.Current_Directory>
/home/adria/Escritorio/rDock_CMTR_LC/2pxcA_model/inputs_sah

>  <Rbt.Executable>
rbdock ($Id: //depot/dev/client3/rdock/2013.1/src/exe/rbdock.cxx#4 $)

>  <Rbt.Library>
libRbt.so (2013.1, Build901 2013/11/27)

>  <Rbt.Parameter_File>
/home/adria/Escritorio/rDock_2013.1_src/data/scripts/dock.prm

>  <Rbt.Receptor>
sah_rdock.prm

>  <SCORE>
-63.4368

>  <SCORE.INTER>
-12.6728

>  <SCORE.INTER.CONST>
1

>  <SCORE.INTER.POLAR>
0

>  <SCORE.INTER.REPUL>
0

>  <SCORE.INTER.ROT>
7

>  <SCORE.INTER.VDW>
-25.0728

>  <SCORE.INTER.norm>
-0.469362

>  <SCORE.INTRA>
-43.7209

>  <SCORE.INTRA.DIHEDRAL>
-95.021

>  <SCORE.INTRA.DIHEDRAL.0>
107.708

>  <SCORE.INTRA.POLAR>
0

>  <SCORE.INTRA.POLAR.0>
0

>  <SCORE.INTRA.REPUL>
0

>  <SCORE.INTRA.REPUL.0>
0

>  <SCORE.INTRA.VDW>
3.78958

>  <SCORE.INTRA.VDW.0>
-5.40071

>  <SCORE.INTRA.norm>
-1.61929

>  <SCORE.RESTR>
0

>  <SCORE.RESTR.CAVITY>
0

>  <SCORE.RESTR.norm>
0

>  <SCORE.SYSTEM>
-7.0431

>  <SCORE.SYSTEM.CONST>
0

>  <SCORE.SYSTEM.DIHEDRAL>
6.68515

>  <SCORE.SYSTEM.POLAR>
-3.97911

>  <SCORE.SYSTEM.REPUL>
0.0414389

>  <SCORE.SYSTEM.VDW>
2.93609

>  <SCORE.SYSTEM.norm>
-0.260856

>  <SCORE.heavy>
27

>  <SCORE.norm>
-2.34951

$$$$
F3284-1643
  rDOCK(R)          3D
libRbt.so/2013.1/901 2013/11/27
 28 30  0  0  0  0  0  0  0  0999 V2000
  -14.2389   18.4699  -18.4598 C   0  0  0  0  0  0
  -14.2454   18.0744  -17.0168 C   0  0  0  0  0  0
  -14.5053   16.7509  -16.6151 O   0  0  0  0  0  0
  -15.8111   16.3071  -16.6298 C   0  0  0  0  0  0
  -16.9761   17.0512  -16.8410 C   0  0  0  0  0  0
  -17.1454   18.2463  -17.6966 C   0  0  0  0  0  0
  -18.0895   19.1457  -17.8258 N   0  0  0  0  0  0
  -19.3335   19.1913  -17.2243 N   0  0  0  0  0  0
  -19.7516   19.6279  -15.9343 C   0  0  0  0  0  0
  -20.9869   19.6675  -15.5170 C   0  0  0  0  0  0
  -22.3137   19.0432  -16.4835 Cl  0  0  0  0  0  0
  -21.3557   20.2626  -14.1938 C   0  0  0  0  0  0
  -22.4728   20.0830  -13.7048 O   0  0  0  0  0  0
  -20.3752   21.0258  -13.5799 N   0  3  0  0  0  0
  -20.6950   21.7845  -12.3284 C   0  0  0  0  0  0
  -21.5752   23.0262  -12.3984 C   0  0  0  0  0  0
  -22.8969   23.0371  -12.8507 C   0  0  0  0  0  0
  -23.6101   24.2382  -13.0322 C   0  0  0  0  0  0
  -23.0506   25.4567  -12.6866 C   0  0  0  0  0  0
  -21.7988   25.4652  -12.0902 C   0  0  0  0  0  0
  -21.0630   24.2715  -11.9686 C   0  0  0  0  0  0
  -19.0427   20.7201  -13.7940 N   0  0  0  0  0  0
  -18.7961   19.9878  -14.8536 C   0  0  0  0  0  0
  -18.1809   16.6431  -16.2212 C   0  0  0  0  0  0
  -18.2933   15.3875  -15.6440 C   0  0  0  0  0  0
  -17.1941   14.5525  -15.6796 C   0  0  0  0  0  0
  -15.9610   15.0002  -16.1630 C   0  0  0  0  0  0
  -20.1127   19.1047  -17.8797 H   0  0  0  0  0  0
  1  2  1  0  0  0
  2  3  1  0  0  0
  3  4  1  0  0  0
  4  5  2  0  0  0
  4 27  1  0  0  0
  5  6  1  0  0  0
  5 24  1  0  0  0
  6  7  2  0  0  0
  7  8  1  0  0  0
  8  9  1  0  0  0
  8 28  1  0  0  0
  9 10  2  0  0  0
  9 23  1  0  0  0
 10 11  1  0  0  0
 10 12  1  0  0  0
 12 13  2  0  0  0
 12 14  1  0  0  0
 14 15  1  0  0  0
 14 22  1  0  0  0
 15 16  1  0  0  0
 16 17  2  0  0  0
 16 21  1  0  0  0
 17 18  1  0  0  0
 18 19  2  0  0  0
 19 20  1  0  0  0
 20 21  2  0  0  0
 22 23  2  0  0  0
 24 25  2  0  0  0
 25 26  1  0  0  0
 26 27  2  0  0  0
M  END
>  <CHROM.0>
-62.26304075,-67.85115001,-166.63412578,64.79407563,-30.76087832,-63.37950433
-154.88389595,-52.40647612

>  <CHROM.1>
-76.88783774,-8.67236305,-167.34882586,81.34703146,176.82282189,-72.34886273
60.90312794,-19.38155473,19.66494449,-15.19849992,-0.89358118,0.10003585
0.46391508

>  <Name>
F3284-1643

>  <RI>
4.14007e+07

>  <Rbt.Current_Directory>
/home/adria/Escritorio/rDock_CMTR_LC/2pxcA_model/inputs_sah

>  <Rbt.Executable>
rbdock ($Id: //depot/dev/client3/rdock/2013.1/src/exe/rbdock.cxx#4 $)

>  <Rbt.Library>
libRbt.so (2013.1, Build901 2013/11/27)

>  <Rbt.Parameter_File>
/home/adria/Escritorio/rDock_2013.1_src/data/scripts/dock.prm

>  <Rbt.Receptor>
sah_rdock.prm

>  <SCORE>
-62.7494

>  <SCORE.INTER>
-14.0081

>  <SCORE.INTER.CONST>
1

>  <SCORE.INTER.POLAR>
-0.610759

>  <SCORE.INTER.REPUL>
0

>  <SCORE.INTER.ROT>
7

>  <SCORE.INTER.VDW>
-24.3315

>  <SCORE.INTER.norm>
-0.518817

>  <SCORE.INTRA>
-43.4431

>  <SCORE.INTRA.DIHEDRAL>
-95.6785

>  <SCORE.INTRA.DIHEDRAL.0>
107.708

>  <SCORE.INTRA.POLAR>
0

>  <SCORE.INTRA.POLAR.0>
0

>  <SCORE.INTRA.REPUL>
0

>  <SCORE.INTRA.REPUL.0>
0

>  <SCORE.INTRA.VDW>
4.39617

>  <SCORE.INTRA.VDW.0>
-5.40071

>  <SCORE.INTRA.norm>
-1.609

>  <SCORE.RESTR>
0

>  <SCORE.RESTR.CAVITY>
0

>  <SCORE.RESTR.norm>
0

>  <SCORE.SYSTEM>
-5.29828

>  <SCORE.SYSTEM.CONST>
0

>  <SCORE.SYSTEM.DIHEDRAL>
8.70179

>  <SCORE.SYSTEM.POLAR>
-3.60637

>  <SCORE.SYSTEM.REPUL>
0.0336808

>  <SCORE.SYSTEM.VDW>
2.44408

>  <SCORE.SYSTEM.norm>
-0.196233

>  <SCORE.heavy>
27

>  <SCORE.norm>
-2.32405

$$$$
F3284-1643
  rDOCK(R)          3D
libRbt.so/2013.1/901 2013/11/27
 28 30  0  0  0  0  0  0  0  0999 V2000
  -18.7955   19.5785  -17.5222 C   0  0  0  0  0  0
  -17.4442   18.9789  -17.2916 C   0  0  0  0  0  0
  -17.2570   17.8962  -16.4122 O   0  0  0  0  0  0
  -17.8534   16.6916  -16.7215 C   0  0  0  0  0  0
  -18.4097   15.7515  -15.8484 C   0  0  0  0  0  0
  -19.0900   16.0035  -14.5590 C   0  0  0  0  0  0
  -19.4391   17.0881  -13.9119 N   0  0  0  0  0  0
  -19.1713   18.4084  -14.2222 N   0  0  0  0  0  0
  -19.6655   19.6317  -13.6848 C   0  0  0  0  0  0
  -20.5630   19.7320  -12.7435 C   0  0  0  0  0  0
  -21.1942   18.3217  -11.9086 Cl  0  0  0  0  0  0
  -21.1253   21.0547  -12.3250 C   0  0  0  0  0  0
  -21.7823   21.1672  -11.2880 O   0  0  0  0  0  0
  -20.8711   22.1169  -13.1782 N   0  3  0  0  0  0
  -21.5139   23.4464  -12.9263 C   0  0  0  0  0  0
  -21.0380   24.3110  -11.7656 C   0  0  0  0  0  0
  -19.8320   24.1301  -11.0840 C   0  0  0  0  0  0
  -19.5158   24.8663   -9.9255 C   0  0  0  0  0  0
  -20.3588   25.8633   -9.4642 C   0  0  0  0  0  0
  -21.4880   26.1720  -10.2073 C   0  0  0  0  0  0
  -21.8345   25.3935  -11.3276 C   0  0  0  0  0  0
  -19.7057   22.1251  -13.9243 N   0  0  0  0  0  0
  -19.1184   20.9610  -14.0646 C   0  0  0  0  0  0
  -18.3857   14.3808  -16.1992 C   0  0  0  0  0  0
  -18.0786   13.9833  -17.4915 C   0  0  0  0  0  0
  -17.7848   14.9603  -18.4220 C   0  0  0  0  0  0
  -17.6684   16.3027  -18.0492 C   0  0  0  0  0  0
  -18.3216   18.5388  -14.7748 H   0  0  0  0  0  0
  1  2  1  0  0  0
  2  3  1  0  0  0
  3  4  1  0  0  0
  4  5  2  0  0  0
  4 27  1  0  0  0
  5  6  1  0  0  0
  5 24  1  0  0  0
  6  7  2  0  0  0
  7  8  1  0  0  0
  8  9  1  0  0  0
  8 28  1  0  0  0
  9 10  2  0  0  0
  9 23  1  0  0  0
 10 11  1  0  0  0
 10 12  1  0  0  0
 12 13  2  0  0  0
 12 14  1  0  0  0
 14 15  1  0  0  0
 14 22  1  0  0  0
 15 16  1  0  0  0
 16 17  2  0  0  0
 16 21  1  0  0  0
 17 18  1  0  0  0
 18 19  2  0  0  0
 19 20  1  0  0  0
 20 21  2  0  0  0
 22 23  2  0  0  0
 24 25  2  0  0  0
 25 26  1  0  0  0
 26 27  2  0  0  0
M  END
>  <CHROM.0>
-58.18629834,-167.16470572,-43.49769121,68.29028509,-30.92779074,-178.60563383
-38.32945834,-52.27960062

>  <CHROM.1>
64.38405604,-144.20597367,4.79817262,169.81003460,-1.97642923,72.62576444
16.11070384,-19.67582396,19.87821601,-13.84989950,-1.03061243,1.02968052
0.13211062

>  <Name>
F3284-1643

>  <RI>
4.14007e+07

>  <Rbt.Current_Directory>
/home/adria/Escritorio/rDock_CMTR_LC/2pxcA_model/inputs_sah

>  <Rbt.Executable>
rbdock ($Id: //depot/dev/client3/rdock/2013.1/src/exe/rbdock.cxx#4 $)

>  <Rbt.Library>
libRbt.so (2013.1, Build901 2013/11/27)

>  <Rbt.Parameter_File>
/home/adria/Escritorio/rDock_2013.1_src/data/scripts/dock.prm

>  <Rbt.Receptor>
sah_rdock.prm

>  <SCORE>
-71.8558

>  <SCORE.INTER>
-18.4002

>  <SCORE.INTER.CONST>
1

>  <SCORE.INTER.POLAR>
-0.824621

>  <SCORE.INTER.REPUL>
0

>  <SCORE.INTER.ROT>
7

>  <SCORE.INTER.VDW>
-27.9965

>  <SCORE.INTER.norm>
-0.681491

>  <SCORE.INTRA>
-49.3692

>  <SCORE.INTRA.DIHEDRAL>
-100.94

>  <SCORE.INTRA.DIHEDRAL.0>
107.708

>  <SCORE.INTRA.POLAR>
-0.766474

>  <SCORE.INTRA.POLAR.0>
0

>  <SCORE.INTRA.REPUL>
0

>  <SCORE.INTRA.REPUL.0>
0

>  <SCORE.INTRA.VDW>
3.70675

>  <SCORE.INTRA.VDW.0>
-5.40071

>  <SCORE.INTRA.norm>
-1.82849

>  <SCORE.RESTR>
0

>  <SCORE.RESTR.CAVITY>
0

>  <SCORE.RESTR.norm>
0

>  <SCORE.SYSTEM>
-4.08635

>  <SCORE.SYSTEM.CONST>
0

>  <SCORE.SYSTEM.DIHEDRAL>
9.23497

>  <SCORE.SYSTEM.POLAR>
-3.29967

>  <SCORE.SYSTEM.REPUL>
0.00592992

>  <SCORE.SYSTEM.VDW>
2.48539

>  <SCORE.SYSTEM.norm>
-0.151346

>  <SCORE.heavy>
27

>  <SCORE.norm>
-2.66133

$$$$
F3284-1643
  rDOCK(R)          3D
libRbt.so/2013.1/901 2013/11/27
 28 30  0  0  0  0  0  0  0  0999 V2000
  -20.4346   26.0129  -10.3466 C   0  0  0  0  0  0
  -21.6721   26.2076   -9.5285 C   0  0  0  0  0  0
  -22.8463   25.4735   -9.7794 O   0  0  0  0  0  0
  -22.7818   24.0969   -9.7232 C   0  0  0  0  0  0
  -22.5024   23.2001  -10.7591 C   0  0  0  0  0  0
  -21.6151   23.4095  -11.9244 C   0  0  0  0  0  0
  -20.9493   22.6056  -12.7163 N   0  0  0  0  0  0
  -20.7952   21.2343  -12.6313 N   0  0  0  0  0  0
  -20.1117   20.2999  -13.4614 C   0  0  0  0  0  0
  -19.9786   19.0268  -13.2104 C   0  0  0  0  0  0
  -20.7647   18.2642  -11.8376 Cl  0  0  0  0  0  0
  -19.1337   18.1362  -14.0671 C   0  0  0  0  0  0
  -19.2029   16.9092  -13.9712 O   0  0  0  0  0  0
  -18.2761   18.7789  -14.9458 N   0  3  0  0  0  0
  -17.2852   17.9822  -15.7380 C   0  0  0  0  0  0
  -16.0898   18.6783  -16.3767 C   0  0  0  0  0  0
  -15.6209   19.9430  -16.0131 C   0  0  0  0  0  0
  -14.6058   20.5960  -16.7393 C   0  0  0  0  0  0
  -13.9724   19.9679  -17.7984 C   0  0  0  0  0  0
  -14.3083   18.6535  -18.0854 C   0  0  0  0  0  0
  -15.3659   18.0259  -17.4006 C   0  0  0  0  0  0
  -18.6318   20.0124  -15.4623 N   0  0  0  0  0  0
  -19.5587   20.6565  -14.7947 C   0  0  0  0  0  0
  -23.0755   21.9067  -10.7294 C   0  0  0  0  0  0
  -23.6733   21.4207   -9.5767 C   0  0  0  0  0  0
  -23.7051   22.2378   -8.4641 C   0  0  0  0  0  0
  -23.2687   23.5645   -8.5283 C   0  0  0  0  0  0
  -21.0194   20.8496  -11.7114 H   0  0  0  0  0  0
  1  2  1  0  0  0
  2  3  1  0  0  0
  3  4  1  0  0  0
  4  5  2  0  0  0
  4 27  1  0  0  0
  5  6  1  0  0  0
  5 24  1  0  0  0
  6  7  2  0  0  0
  7  8  1  0  0  0
  8  9  1  0  0  0
  8 28  1  0  0  0
  9 10  2  0  0  0
  9 23  1  0  0  0
 10 11  1  0  0  0
 10 12  1  0  0  0
 12 13  2  0  0  0
 12 14  1  0  0  0
 14 15  1  0  0  0
 14 22  1  0  0  0
 15 16  1  0  0  0
 16 17  2  0  0  0
 16 21  1  0  0  0
 17 18  1  0  0  0
 18 19  2  0  0  0
 19 20  1  0  0  0
 20 21  2  0  0  0
 22 23  2  0  0  0
 24 25  2  0  0  0
 25 26  1  0  0  0
 26 27  2  0  0  0
M  END
>  <CHROM.0>
172.78036329,-69.48227727,-8.64348256,63.32693782,-31.28082539,-63.20899157
-156.14835191,-167.56466441

>  <CHROM.1>
58.18604556,-90.51858755,155.45279717,178.73160852,175.43102880,-161.99436582
17.82944451,-19.72556867,20.88788599,-13.02855221,-2.52172816,-0.70404633
-2.94420250

>  <Name>
F3284-1643

>  <RI>
4.14007e+07

>  <Rbt.Current_Directory>
/home/adria/Escritorio/rDock_CMTR_LC/2pxcA_model/inputs_sah

>  <Rbt.Executable>
rbdock ($Id: //depot/dev/client3/rdock/2013.1/src/exe/rbdock.cxx#4 $)

>  <Rbt.Library>
libRbt.so (2013.1, Build901 2013/11/27)

>  <Rbt.Parameter_File>
/home/adria/Escritorio/rDock_2013.1_src/data/scripts/dock.prm

>  <Rbt.Receptor>
sah_rdock.prm

>  <SCORE>
-72.5543

>  <SCORE.INTER>
-20.4877

>  <SCORE.INTER.CONST>
1

>  <SCORE.INTER.POLAR>
-1.17995

>  <SCORE.INTER.REPUL>
0

>  <SCORE.INTER.ROT>
7

>  <SCORE.INTER.VDW>
-28.8758

>  <SCORE.INTER.norm>
-0.758802

>  <SCORE.INTRA>
-45.0602

>  <SCORE.INTRA.DIHEDRAL>
-97.2517

>  <SCORE.INTRA.DIHEDRAL.0>
107.708

>  <SCORE.INTRA.POLAR>
0

>  <SCORE.INTRA.POLAR.0>
0

>  <SCORE.INTRA.REPUL>
0

>  <SCORE.INTRA.REPUL.0>
0

>  <SCORE.INTRA.VDW>
3.56567

>  <SCORE.INTRA.VDW.0>
-5.40071

>  <SCORE.INTRA.norm>
-1.6689

>  <SCORE.RESTR>
0

>  <SCORE.RESTR.CAVITY>
0

>  <SCORE.RESTR.norm>
0

>  <SCORE.SYSTEM>
-7.00646

>  <SCORE.SYSTEM.CONST>
0

>  <SCORE.SYSTEM.DIHEDRAL>
8.99896

>  <SCORE.SYSTEM.POLAR>
-4.5699

>  <SCORE.SYSTEM.REPUL>
0.0316583

>  <SCORE.SYSTEM.VDW>
3.87342

>  <SCORE.SYSTEM.norm>
-0.259499

>  <SCORE.heavy>
27

>  <SCORE.norm>
-2.6872

$$$$
F3284-1643
  rDOCK(R)          3D
libRbt.so/2013.1/901 2013/11/27
 28 30  0  0  0  0  0  0  0  0999 V2000
  -19.2594   21.9863  -15.0300 C   0  0  0  0  0  0
  -20.1924   20.8562  -14.7283 C   0  0  0  0  0  0
  -20.4357   19.8305  -15.6607 O   0  0  0  0  0  0
  -19.3735   19.0498  -16.0665 C   0  0  0  0  0  0
  -18.6178   18.1526  -15.3053 C   0  0  0  0  0  0
  -19.0719   17.3233  -14.1673 C   0  0  0  0  0  0
  -20.2289   17.1401  -13.5803 N   0  0  0  0  0  0
  -21.4303   17.7849  -13.8090 N   0  0  0  0  0  0
  -22.5340   18.0721  -12.9555 C   0  0  0  0  0  0
  -23.5812   18.7745  -13.2898 C   0  0  0  0  0  0
  -23.8223   19.3592  -14.9282 Cl  0  0  0  0  0  0
  -24.6375   19.1417  -12.2946 C   0  0  0  0  0  0
  -25.7264   19.5901  -12.6591 O   0  0  0  0  0  0
  -24.3027   18.9584  -10.9623 N   0  3  0  0  0  0
  -25.2316   19.4339   -9.8875 C   0  0  0  0  0  0
  -25.0938   20.8479   -9.3371 C   0  0  0  0  0  0
  -23.9358   21.3600   -8.7468 C   0  0  0  0  0  0
  -23.9159   22.6231   -8.1235 C   0  0  0  0  0  0
  -25.0298   23.4453   -8.1466 C   0  0  0  0  0  0
  -26.1447   23.0298   -8.8587 C   0  0  0  0  0  0
  -26.1848   21.7422   -9.4258 C   0  0  0  0  0  0
  -23.4213   17.9495  -10.6158 N   0  0  0  0  0  0
  -22.6736   17.4948  -11.5924 C   0  0  0  0  0  0
  -17.2586   17.9377  -15.6349 C   0  0  0  0  0  0
  -16.7425   18.3777  -16.8443 C   0  0  0  0  0  0
  -17.5877   19.0417  -17.7112 C   0  0  0  0  0  0
  -18.8903   19.3811  -17.3335 C   0  0  0  0  0  0
  -21.4448   18.3392  -14.6674 H   0  0  0  0  0  0
  1  2  1  0  0  0
  2  3  1  0  0  0
  3  4  1  0  0  0
  4  5  2  0  0  0
  4 27  1  0  0  0
  5  6  1  0  0  0
  5 24  1  0  0  0
  6  7  2  0  0  0
  7  8  1  0  0  0
  8  9  1  0  0  0
  8 28  1  0  0  0
  9 10  2  0  0  0
  9 23  1  0  0  0
 10 11  1  0  0  0
 10 12  1  0  0  0
 12 13  2  0  0  0
 12 14  1  0  0  0
 14 15  1  0  0  0
 14 22  1  0  0  0
 15 16  1  0  0  0
 16 17  2  0  0  0
 16 21  1  0  0  0
 17 18  1  0  0  0
 18 19  2  0  0  0
 19 20  1  0  0  0
 20 21  2  0  0  0
 22 23  2  0  0  0
 24 25  2  0  0  0
 25 26  1  0  0  0
 26 27  2  0  0  0
M  END
>  <CHROM.0>
-65.34321230,66.22119875,-130.05252400,66.15589659,-29.16040348,65.24136719
-157.12618806,-163.64910301

>  <CHROM.1>
61.21404402,66.09527323,2.40595263,-150.67290347,175.22506747,-89.89478204
-58.12147261,-22.15524520,19.57462029,-13.01897973,-0.58167501,0.61776474
0.49449840

>  <Name>
F3284-1643

>  <RI>
4.14007e+07

>  <Rbt.Current_Directory>
/home/adria/Escritorio/rDock_CMTR_LC/2pxcA_model/inputs_sah

>  <Rbt.Executable>
rbdock ($Id: //depot/dev/client3/rdock/2013.1/src/exe/rbdock.cxx#4 $)

>  <Rbt.Library>
libRbt.so (2013.1, Build901 2013/11/27)

>  <Rbt.Parameter_File>
/home/adria/Escritorio/rDock_2013.1_src/data/scripts/dock.prm

>  <Rbt.Receptor>
sah_rdock.prm

>  <SCORE>
-62.5257

>  <SCORE.INTER>
-6.26439

>  <SCORE.INTER.CONST>
1

>  <SCORE.INTER.POLAR>
-0.805601

>  <SCORE.INTER.REPUL>
0

>  <SCORE.INTER.ROT>
7

>  <SCORE.INTER.VDW>
-15.9253

>  <SCORE.INTER.norm>
-0.232015

>  <SCORE.INTRA>
-49.4387

>  <SCORE.INTRA.DIHEDRAL>
-97.8436

>  <SCORE.INTRA.DIHEDRAL.0>
107.708

>  <SCORE.INTRA.POLAR>
-0.704624

>  <SCORE.INTRA.POLAR.0>
0

>  <SCORE.INTRA.REPUL>
0

>  <SCORE.INTRA.REPUL.0>
0

>  <SCORE.INTRA.VDW>
1.87878

>  <SCORE.INTRA.VDW.0>
-5.40071

>  <SCORE.INTRA.norm>
-1.83106

>  <SCORE.RESTR>
0

>  <SCORE.RESTR.CAVITY>
0

>  <SCORE.RESTR.norm>
0

>  <SCORE.SYSTEM>
-6.82252

>  <SCORE.SYSTEM.CONST>
0

>  <SCORE.SYSTEM.DIHEDRAL>
9.22112

>  <SCORE.SYSTEM.POLAR>
-4.26851

>  <SCORE.SYSTEM.VDW>
3.07984

>  <SCORE.SYSTEM.norm>
-0.252686

>  <SCORE.heavy>
27

>  <SCORE.norm>
-2.31576

$$$$
F3284-1643
  rDOCK(R)          3D
libRbt.so/2013.1/901 2013/11/27
 28 30  0  0  0  0  0  0  0  0999 V2000
  -25.6426   23.2508   -8.0822 C   0  0  0  0  0  0
  -24.8858   22.1254   -8.7143 C   0  0  0  0  0  0
  -25.3598   20.8010   -8.6718 O   0  0  0  0  0  0
  -24.5924   19.8126   -9.2518 C   0  0  0  0  0  0
  -23.5434   19.9550  -10.1655 C   0  0  0  0  0  0
  -22.5726   21.0670  -10.2646 C   0  0  0  0  0  0
  -21.4245   21.2198  -10.8774 N   0  0  0  0  0  0
  -20.6868   20.2884  -11.5842 N   0  0  0  0  0  0
  -19.9224   20.3899  -12.7820 C   0  0  0  0  0  0
  -19.8436   21.4508  -13.5369 C   0  0  0  0  0  0
  -20.5925   22.9724  -13.0807 Cl  0  0  0  0  0  0
  -19.1233   21.4356  -14.8492 C   0  0  0  0  0  0
  -18.8480   22.4842  -15.4358 O   0  0  0  0  0  0
  -18.8093   20.1828  -15.3519 N   0  3  0  0  0  0
  -18.2234   20.0554  -16.7248 C   0  0  0  0  0  0
  -16.8007   19.5382  -16.8970 C   0  0  0  0  0  0
  -16.4691   18.2941  -17.4392 C   0  0  0  0  0  0
  -15.1459   17.8111  -17.4356 C   0  0  0  0  0  0
  -14.1043   18.5935  -16.9662 C   0  0  0  0  0  0
  -14.3802   19.8919  -16.5653 C   0  0  0  0  0  0
  -15.7100   20.3498  -16.5099 C   0  0  0  0  0  0
  -18.5620   19.1412  -14.4751 N   0  0  0  0  0  0
  -19.0164   19.3107  -13.2567 C   0  0  0  0  0  0
  -23.3043   18.9299  -11.1112 C   0  0  0  0  0  0
  -23.8990   17.6848  -10.9753 C   0  0  0  0  0  0
  -24.7400   17.4776   -9.8999 C   0  0  0  0  0  0
  -25.0909   18.5256   -9.0436 C   0  0  0  0  0  0
  -20.4705   19.4430  -11.0524 H   0  0  0  0  0  0
  1  2  1  0  0  0
  2  3  1  0  0  0
  3  4  1  0  0  0
  4  5  2  0  0  0
  4 27  1  0  0  0
  5  6  1  0  0  0
  5 24  1  0  0  0
  6  7  2  0  0  0
  7  8  1  0  0  0
  8  9  1  0  0  0
  8 28  1  0  0  0
  9 10  2  0  0  0
  9 23  1  0  0  0
 10 11  1  0  0  0
 10 12  1  0  0  0
 12 13  2  0  0  0
 12 14  1  0  0  0
 14 15  1  0  0  0
 14 22  1  0  0  0
 15 16  1  0  0  0
 16 17  2  0  0  0
 16 21  1  0  0  0
 17 18  1  0  0  0
 18 19  2  0  0  0
 19 20  1  0  0  0
 20 21  2  0  0  0
 22 23  2  0  0  0
 24 25  2  0  0  0
 25 26  1  0  0  0
 26 27  2  0  0  0
M  END
>  <CHROM.0>
-60.51450327,66.84381946,73.37867376,64.85039078,168.08740278,-179.24014804
82.18378169,-162.75288429

>  <CHROM.1>
-178.61023412,-16.77519994,164.94941899,141.33174943,-5.00477678,114.47046410
109.78555226,-20.47922956,20.31984937,-12.92383059,-3.03530542,-0.71453818
-3.10633948

>  <Name>
F3284-1643

>  <RI>
4.14007e+07

>  <Rbt.Current_Directory>
/home/adria/Escritorio/rDock_CMTR_LC/2pxcA_model/inputs_sah

>  <Rbt.Executable>
rbdock ($Id: //depot/dev/client3/rdock/2013.1/src/exe/rbdock.cxx#4 $)

>  <Rbt.Library>
libRbt.so (2013.1, Build901 2013/11/27)

>  <Rbt.Parameter_File>
/home/adria/Escritorio/rDock_2013.1_src/data/scripts/dock.prm

>  <Rbt.Receptor>
sah_rdock.prm

>  <SCORE>
-63.2005

>  <SCORE.INTER>
-15.0351

>  <SCORE.INTER.CONST>
1

>  <SCORE.INTER.POLAR>
-0.411916

>  <SCORE.INTER.REPUL>
0

>  <SCORE.INTER.ROT>
7

>  <SCORE.INTER.VDW>
-26.0346

>  <SCORE.INTER.norm>
-0.556855

>  <SCORE.INTRA>
-45.7519

>  <SCORE.INTRA.DIHEDRAL>
-99.0832

>  <SCORE.INTRA.DIHEDRAL.0>
107.708

>  <SCORE.INTRA.POLAR>
0

>  <SCORE.INTRA.POLAR.0>
0

>  <SCORE.INTRA.REPUL>
0

>  <SCORE.INTRA.REPUL.0>
0

>  <SCORE.INTRA.VDW>
3.78967

>  <SCORE.INTRA.VDW.0>
-5.40071

>  <SCORE.INTRA.norm>
-1.69451

>  <SCORE.RESTR>
0

>  <SCORE.RESTR.CAVITY>
0

>  <SCORE.RESTR.norm>
0

>  <SCORE.SYSTEM>
-2.41348

>  <SCORE.SYSTEM.CONST>
0

>  <SCORE.SYSTEM.DIHEDRAL>
2.95454

>  <SCORE.SYSTEM.POLAR>
-3.62654

>  <SCORE.SYSTEM.VDW>
8.43948

>  <SCORE.SYSTEM.norm>
-0.0893883

>  <SCORE.heavy>
27

>  <SCORE.norm>
-2.34076

$$$$
F3284-1643
  rDOCK(R)          3D
libRbt.so/2013.1/901 2013/11/27
 28 30  0  0  0  0  0  0  0  0999 V2000
  -16.9839   14.9245  -19.1533 C   0  0  0  0  0  0
  -15.7367   14.5522  -18.4154 C   0  0  0  0  0  0
  -15.5057   14.9778  -17.0940 O   0  0  0  0  0  0
  -15.4039   16.3317  -16.8511 C   0  0  0  0  0  0
  -16.4311   17.2443  -16.5910 C   0  0  0  0  0  0
  -17.7082   16.9948  -15.8869 C   0  0  0  0  0  0
  -18.7288   17.7488  -15.5604 N   0  0  0  0  0  0
  -18.8806   19.1152  -15.7059 N   0  0  0  0  0  0
  -19.4404   20.1072  -14.8504 C   0  0  0  0  0  0
  -20.0693   19.8692  -13.7327 C   0  0  0  0  0  0
  -20.1905   18.2505  -13.0623 Cl  0  0  0  0  0  0
  -20.7427   20.9582  -12.9570 C   0  0  0  0  0  0
  -21.1213   20.7732  -11.7986 O   0  0  0  0  0  0
  -20.9186   22.1581  -13.6277 N   0  3  0  0  0  0
  -21.7123   23.2584  -12.9924 C   0  0  0  0  0  0
  -21.0615   24.1578  -11.9489 C   0  0  0  0  0  0
  -19.8685   23.8660  -11.2832 C   0  0  0  0  0  0
  -19.3948   24.6638  -10.2234 C   0  0  0  0  0  0
  -20.0567   25.8229   -9.8548 C   0  0  0  0  0  0
  -21.1572   26.2218  -10.5980 C   0  0  0  0  0  0
  -21.6655   25.3913  -11.6144 C   0  0  0  0  0  0
  -20.0060   22.5347  -14.5973 N   0  0  0  0  0  0
  -19.2673   21.5657  -15.0822 C   0  0  0  0  0  0
  -16.2769   18.5932  -16.9895 C   0  0  0  0  0  0
  -15.0386   19.0831  -17.3755 C   0  0  0  0  0  0
  -13.9642   18.2157  -17.3724 C   0  0  0  0  0  0
  -14.1363   16.8519  -17.1169 C   0  0  0  0  0  0
  -18.3051   19.5181  -16.4481 H   0  0  0  0  0  0
  1  2  1  0  0  0
  2  3  1  0  0  0
  3  4  1  0  0  0
  4  5  2  0  0  0
  4 27  1  0  0  0
  5  6  1  0  0  0
  5 24  1  0  0  0
  6  7  2  0  0  0
  7  8  1  0  0  0
  8  9  1  0  0  0
  8 28  1  0  0  0
  9 10  2  0  0  0
  9 23  1  0  0  0
 10 11  1  0  0  0
 10 12  1  0  0  0
 12 13  2  0  0  0
 12 14  1  0  0  0
 14 15  1  0  0  0
 14 22  1  0  0  0
 15 16  1  0  0  0
 16 17  2  0  0  0
 16 21  1  0  0  0
 17 18  1  0  0  0
 18 19  2  0  0  0
 19 20  1  0  0  0
 20 21  2  0  0  0
 22 23  2  0  0  0
 24 25  2  0  0  0
 25 26  1  0  0  0
 26 27  2  0  0  0
M  END
>  <CHROM.0>
-62.29317062,-71.77669743,-128.82792870,64.03082799,-31.22061205,-178.66407512
-36.29480937,-164.07455795

>  <CHROM.1>
-62.60827856,86.49277648,178.62623785,-138.97997344,-6.97379546,80.63749909
-15.96661151,-18.66179710,19.98206545,-14.48333393,1.03248994,-0.49409275
-2.76915144

>  <Name>
F3284-1643

>  <RI>
4.14007e+07

>  <Rbt.Current_Directory>
/home/adria/Escritorio/rDock_CMTR_LC/2pxcA_model/inputs_sah

>  <Rbt.Executable>
rbdock ($Id: //depot/dev/client3/rdock/2013.1/src/exe/rbdock.cxx#4 $)

>  <Rbt.Library>
libRbt.so (2013.1, Build901 2013/11/27)

>  <Rbt.Parameter_File>
/home/adria/Escritorio/rDock_2013.1_src/data/scripts/dock.prm

>  <Rbt.Receptor>
sah_rdock.prm

>  <SCORE>
-68.5592

>  <SCORE.INTER>
-16.5105

>  <SCORE.INTER.CONST>
1

>  <SCORE.INTER.POLAR>
0

>  <SCORE.INTER.REPUL>
0

>  <SCORE.INTER.ROT>
7

>  <SCORE.INTER.VDW>
-28.9105

>  <SCORE.INTER.norm>
-0.611499

>  <SCORE.INTRA>
-44.8218

>  <SCORE.INTRA.DIHEDRAL>
-97.5776

>  <SCORE.INTRA.DIHEDRAL.0>
107.708

>  <SCORE.INTRA.POLAR>
0

>  <SCORE.INTRA.POLAR.0>
0

>  <SCORE.INTRA.REPUL>
0

>  <SCORE.INTRA.REPUL.0>
0

>  <SCORE.INTRA.VDW>
3.96706

>  <SCORE.INTRA.VDW.0>
-5.40071

>  <SCORE.INTRA.norm>
-1.66007

>  <SCORE.RESTR>
0

>  <SCORE.RESTR.CAVITY>
0

>  <SCORE.RESTR.norm>
0

>  <SCORE.SYSTEM>
-7.22696

>  <SCORE.SYSTEM.CONST>
0

>  <SCORE.SYSTEM.DIHEDRAL>
9.13324

>  <SCORE.SYSTEM.POLAR>
-4.53839

>  <SCORE.SYSTEM.REPUL>
0.0362782

>  <SCORE.SYSTEM.VDW>
3.45556

>  <SCORE.SYSTEM.norm>
-0.267665

>  <SCORE.heavy>
27

>  <SCORE.norm>
-2.53923

$$$$
F3284-1643
  rDOCK(R)          3D
libRbt.so/2013.1/901 2013/11/27
 28 30  0  0  0  0  0  0  0  0999 V2000
  -25.5770   22.9730   -7.8562 C   0  0  0  0  0  0
  -24.8715   23.0661   -9.1723 C   0  0  0  0  0  0
  -23.6249   23.7069   -9.2983 O   0  0  0  0  0  0
  -23.1039   23.8816  -10.5633 C   0  0  0  0  0  0
  -22.1161   23.1276  -11.2046 C   0  0  0  0  0  0
  -21.8408   21.6815  -11.0564 C   0  0  0  0  0  0
  -20.9228   20.8772  -11.5330 N   0  0  0  0  0  0
  -19.9270   21.1449  -12.4539 N   0  0  0  0  0  0
  -19.6369   20.5860  -13.7317 C   0  0  0  0  0  0
  -20.1935   19.5163  -14.2293 C   0  0  0  0  0  0
  -21.5047   18.6849  -13.4085 Cl  0  0  0  0  0  0
  -19.7395   18.9184  -15.5244 C   0  0  0  0  0  0
  -20.4151   18.0644  -16.1021 O   0  0  0  0  0  0
  -18.5234   19.3748  -16.0076 N   0  3  0  0  0  0
  -17.9122   18.7330  -17.2153 C   0  0  0  0  0  0
  -16.5731   18.0160  -17.0972 C   0  0  0  0  0  0
  -16.3670   16.8328  -16.3836 C   0  0  0  0  0  0
  -15.0786   16.2984  -16.1874 C   0  0  0  0  0  0
  -13.9685   16.8860  -16.7703 C   0  0  0  0  0  0
  -14.1591   17.9718  -17.6115 C   0  0  0  0  0  0
  -15.4379   18.5420  -17.7549 C   0  0  0  0  0  0
  -18.1231   20.6692  -15.7262 N   0  0  0  0  0  0
  -18.7296   21.2385  -14.7124 C   0  0  0  0  0  0
  -21.2692   23.7549  -12.1488 C   0  0  0  0  0  0
  -21.5712   25.0122  -12.6493 C   0  0  0  0  0  0
  -22.7131   25.6394  -12.1916 C   0  0  0  0  0  0
  -23.4759   25.0885  -11.1576 C   0  0  0  0  0  0
  -19.4483   22.0342  -12.2979 H   0  0  0  0  0  0
  1  2  1  0  0  0
  2  3  1  0  0  0
  3  4  1  0  0  0
  4  5  2  0  0  0
  4 27  1  0  0  0
  5  6  1  0  0  0
  5 24  1  0  0  0
  6  7  2  0  0  0
  7  8  1  0  0  0
  8  9  1  0  0  0
  8 28  1  0  0  0
  9 10  2  0  0  0
  9 23  1  0  0  0
 10 11  1  0  0  0
 10 12  1  0  0  0
 12 13  2  0  0  0
 12 14  1  0  0  0
 14 15  1  0  0  0
 14 22  1  0  0  0
 15 16  1  0  0  0
 16 17  2  0  0  0
 16 21  1  0  0  0
 17 18  1  0  0  0
 18 19  2  0  0  0
 19 20  1  0  0  0
 20 21  2  0  0  0
 22 23  2  0  0  0
 24 25  2  0  0  0
 25 26  1  0  0  0
 26 27  2  0  0  0
M  END
>  <CHROM.0>
38.15835565,63.23848017,-129.50277914,-62.63740980,25.31956860,-178.38967439
-157.01722465,-161.06223127

>  <CHROM.1>
-173.06158086,-100.63296272,-175.82457991,-120.06946351,-10.44556380,-116.99487867
67.66405296,-20.05556661,20.64699661,-13.62702112,2.54168970,0.68716756,0.09600933

>  <Name>
F3284-1643

>  <RI>
4.14007e+07

>  <Rbt.Current_Directory>
/home/adria/Escritorio/rDock_CMTR_LC/2pxcA_model/inputs_sah

>  <Rbt.Executable>
rbdock ($Id: //depot/dev/client3/rdock/2013.1/src/exe/rbdock.cxx#4 $)

>  <Rbt.Library>
libRbt.so (2013.1, Build901 2013/11/27)

>  <Rbt.Parameter_File>
/home/adria/Escritorio/rDock_2013.1_src/data/scripts/dock.prm

>  <Rbt.Receptor>
sah_rdock.prm

>  <SCORE>
-46.092

>  <SCORE.INTER>
-11.9309

>  <SCORE.INTER.CONST>
1

>  <SCORE.INTER.POLAR>
-0.682937

>  <SCORE.INTER.REPUL>
0.198832

>  <SCORE.INTER.ROT>
7

>  <SCORE.INTER.VDW>
-23.003

>  <SCORE.INTER.norm>
-0.441884

>  <SCORE.INTRA>
-43.6966

>  <SCORE.INTRA.DIHEDRAL>
-93.5185

>  <SCORE.INTRA.DIHEDRAL.0>
107.708

>  <SCORE.INTRA.POLAR>
0

>  <SCORE.INTRA.POLAR.0>
0

>  <SCORE.INTRA.REPUL>
0

>  <SCORE.INTRA.REPUL.0>
0

>  <SCORE.INTRA.VDW>
3.0627

>  <SCORE.INTRA.VDW.0>
-5.40071

>  <SCORE.INTRA.norm>
-1.61839

>  <SCORE.RESTR>
0

>  <SCORE.RESTR.CAVITY>
0

>  <SCORE.RESTR.norm>
0

>  <SCORE.SYSTEM>
9.53543

>  <SCORE.SYSTEM.CONST>
0

>  <SCORE.SYSTEM.DIHEDRAL>
11.7152

>  <SCORE.SYSTEM.POLAR>
-3.97627

>  <SCORE.SYSTEM.REPUL>
0.128921

>  <SCORE.SYSTEM.VDW>
16.5525

>  <SCORE.SYSTEM.norm>
0.353164

>  <SCORE.heavy>
27

>  <SCORE.norm>
-1.70711

$$$$
F3284-1643
  rDOCK(R)          3D
libRbt.so/2013.1/901 2013/11/27
 28 30  0  0  0  0  0  0  0  0999 V2000
  -23.6690   23.2036   -7.9656 C   0  0  0  0  0  0
  -24.6171   22.8892   -9.0795 C   0  0  0  0  0  0
  -24.8449   23.7941  -10.1329 O   0  0  0  0  0  0
  -23.8207   24.0297  -11.0260 C   0  0  0  0  0  0
  -22.6753   23.2601  -11.2526 C   0  0  0  0  0  0
  -22.5352   21.7910  -11.1473 C   0  0  0  0  0  0
  -21.8050   20.9002  -11.7719 N   0  0  0  0  0  0
  -20.9604   21.0731  -12.8527 N   0  0  0  0  0  0
  -20.1780   20.1516  -13.6064 C   0  0  0  0  0  0
  -20.0040   18.8933  -13.3097 C   0  0  0  0  0  0
  -20.8479   18.1296  -11.9723 Cl  0  0  0  0  0  0
  -19.0609   18.0225  -14.0801 C   0  0  0  0  0  0
  -19.0797   16.7965  -13.9533 O   0  0  0  0  0  0
  -18.1748   18.6829  -14.9164 N   0  3  0  0  0  0
  -17.0951   17.9146  -15.6152 C   0  0  0  0  0  0
  -15.9662   18.6600  -16.3161 C   0  0  0  0  0  0
  -15.5234   19.9384  -15.9678 C   0  0  0  0  0  0
  -14.5780   20.6348  -16.7458 C   0  0  0  0  0  0
  -13.9859   20.0394  -17.8469 C   0  0  0  0  0  0
  -14.2896   18.7158  -18.1272 C   0  0  0  0  0  0
  -15.2808   18.0436  -17.3877 C   0  0  0  0  0  0
  -18.5503   19.8840  -15.4919 N   0  0  0  0  0  0
  -19.5504   20.4997  -14.9085 C   0  0  0  0  0  0
  -21.4837   23.8977  -11.6719 C   0  0  0  0  0  0
  -21.5003   25.2084  -12.1238 C   0  0  0  0  0  0
  -22.7083   25.8772  -12.1411 C   0  0  0  0  0  0
  -23.8610   25.3026  -11.5972 C   0  0  0  0  0  0
  -21.0800   21.9681  -13.3314 H   0  0  0  0  0  0
  1  2  1  0  0  0
  2  3  1  0  0  0
  3  4  1  0  0  0
  4  5  2  0  0  0
  4 27  1  0  0  0
  5  6  1  0  0  0
  5 24  1  0  0  0
  6  7  2  0  0  0
  7  8  1  0  0  0
  8  9  1  0  0  0
  8 28  1  0  0  0
  9 10  2  0  0  0
  9 23  1  0  0  0
 10 11  1  0  0  0
 10 12  1  0  0  0
 12 13  2  0  0  0
 12 14  1  0  0  0
 14 15  1  0  0  0
 14 22  1  0  0  0
 15 16  1  0  0  0
 16 17  2  0  0  0
 16 21  1  0  0  0
 17 18  1  0  0  0
 18 19  2  0  0  0
 19 20  1  0  0  0
 20 21  2  0  0  0
 22 23  2  0  0  0
 24 25  2  0  0  0
 25 26  1  0  0  0
 26 27  2  0  0  0
M  END
>  <CHROM.0>
-66.28897884,-167.76258758,-44.61238002,61.31652485,-32.17834550,60.04633531
82.00496502,-161.42517327

>  <CHROM.1>
68.61203617,17.61113726,148.02992828,-177.47521216,-7.51349533,-168.34265796
26.35438257,-19.98705025,20.80469748,-13.30776233,2.74861420,0.71191744,-0.11512638

>  <Name>
F3284-1643

>  <RI>
4.14007e+07

>  <Rbt.Current_Directory>
/home/adria/Escritorio/rDock_CMTR_LC/2pxcA_model/inputs_sah

>  <Rbt.Executable>
rbdock ($Id: //depot/dev/client3/rdock/2013.1/src/exe/rbdock.cxx#4 $)

>  <Rbt.Library>
libRbt.so (2013.1, Build901 2013/11/27)

>  <Rbt.Parameter_File>
/home/adria/Escritorio/rDock_2013.1_src/data/scripts/dock.prm

>  <Rbt.Receptor>
sah_rdock.prm

>  <SCORE>
-66.8693

>  <SCORE.INTER>
-14.7733

>  <SCORE.INTER.CONST>
1

>  <SCORE.INTER.POLAR>
-0.312809

>  <SCORE.INTER.REPUL>
0.0164689

>  <SCORE.INTER.ROT>
7

>  <SCORE.INTER.VDW>
-26.1921

>  <SCORE.INTER.norm>
-0.54716

>  <SCORE.INTRA>
-45.8916

>  <SCORE.INTRA.DIHEDRAL>
-99.4547

>  <SCORE.INTRA.DIHEDRAL.0>
107.708

>  <SCORE.INTRA.POLAR>
0

>  <SCORE.INTRA.POLAR.0>
0

>  <SCORE.INTRA.REPUL>
0

>  <SCORE.INTRA.REPUL.0>
0

>  <SCORE.INTRA.VDW>
3.83575

>  <SCORE.INTRA.VDW.0>
-5.40071

>  <SCORE.INTRA.norm>
-1.69969

>  <SCORE.RESTR>
0

>  <SCORE.RESTR.CAVITY>
0

>  <SCORE.RESTR.norm>
0

>  <SCORE.SYSTEM>
-6.20438

>  <SCORE.SYSTEM.CONST>
0

>  <SCORE.SYSTEM.DIHEDRAL>
6.21513

>  <SCORE.SYSTEM.POLAR>
-3.62936

>  <SCORE.SYSTEM.VDW>
3.02787

>  <SCORE.SYSTEM.norm>
-0.229792

>  <SCORE.heavy>
27

>  <SCORE.norm>
-2.47664

$$$$
F3284-1643
  rDOCK(R)          3D
libRbt.so/2013.1/901 2013/11/27
 28 30  0  0  0  0  0  0  0  0999 V2000
  -14.6750   15.2842  -18.7855 C   0  0  0  0  0  0
  -16.1092   15.5353  -18.4411 C   0  0  0  0  0  0
  -16.6493   16.8348  -18.4296 O   0  0  0  0  0  0
  -16.1734   17.7329  -17.4973 C   0  0  0  0  0  0
  -16.8282   18.2400  -16.3706 C   0  0  0  0  0  0
  -17.8293   17.5582  -15.5209 C   0  0  0  0  0  0
  -18.5752   17.9372  -14.5125 N   0  0  0  0  0  0
  -18.5770   19.1447  -13.8393 N   0  0  0  0  0  0
  -19.5447   19.7632  -12.9965 C   0  0  0  0  0  0
  -20.7339   19.2909  -12.7431 C   0  0  0  0  0  0
  -21.2519   17.7179  -13.3278 Cl  0  0  0  0  0  0
  -21.7404   20.0661  -11.9513 C   0  0  0  0  0  0
  -22.7590   19.5263  -11.5150 O   0  0  0  0  0  0
  -21.4560   21.4093  -11.7620 N   0  3  0  0  0  0
  -22.4689   22.3020  -11.1131 C   0  0  0  0  0  0
  -22.6035   23.7507  -11.5657 C   0  0  0  0  0  0
  -21.8276   24.8076  -11.0836 C   0  0  0  0  0  0
  -22.0982   26.1460  -11.4297 C   0  0  0  0  0  0
  -23.0993   26.4583  -12.3339 C   0  0  0  0  0  0
  -23.7843   25.4207  -12.9479 C   0  0  0  0  0  0
  -23.5561   24.0890  -12.5536 C   0  0  0  0  0  0
  -20.1367   21.8219  -11.6973 N   0  0  0  0  0  0
  -19.2600   20.9870  -12.2013 C   0  0  0  0  0  0
  -16.5131   19.5414  -15.9131 C   0  0  0  0  0  0
  -15.3905   20.2069  -16.3814 C   0  0  0  0  0  0
  -14.5968   19.5701  -17.3148 C   0  0  0  0  0  0
  -14.9780   18.3469  -17.8745 C   0  0  0  0  0  0
  -17.6517   19.5692  -13.7499 H   0  0  0  0  0  0
  1  2  1  0  0  0
  2  3  1  0  0  0
  3  4  1  0  0  0
  4  5  2  0  0  0
  4 27  1  0  0  0
  5  6  1  0  0  0
  5 24  1  0  0  0
  6  7  2  0  0  0
  7  8  1  0  0  0
  8  9  1  0  0  0
  8 28  1  0  0  0
  9 10  2  0  0  0
  9 23  1  0  0  0
 10 11  1  0  0  0
 10 12  1  0  0  0
 12 13  2  0  0  0
 12 14  1  0  0  0
 14 15  1  0  0  0
 14 22  1  0  0  0
 15 16  1  0  0  0
 16 17  2  0  0  0
 16 21  1  0  0  0
 17 18  1  0  0  0
 18 19  2  0  0  0
 19 20  1  0  0  0
 20 21  2  0  0  0
 22 23  2  0  0  0
 24 25  2  0  0  0
 25 26  1  0  0  0
 26 27  2  0  0  0
M  END
>  <CHROM.0>
-61.59144573,67.06774067,112.88328210,-61.37774162,32.03867296,179.05631085
-158.18379845,-160.15101799

>  <CHROM.1>
-65.16332825,-109.20624322,-174.46169313,161.16614827,-4.13357659,-144.83745815
-85.35643752,-19.46303762,20.13282492,-14.13538344,-0.66374589,0.68686856
0.04615700

>  <Name>
F3284-1643

>  <RI>
4.14007e+07

>  <Rbt.Current_Directory>
/home/adria/Escritorio/rDock_CMTR_LC/2pxcA_model/inputs_sah

>  <Rbt.Executable>
rbdock ($Id: //depot/dev/client3/rdock/2013.1/src/exe/rbdock.cxx#4 $)

>  <Rbt.Library>
libRbt.so (2013.1, Build901 2013/11/27)

>  <Rbt.Parameter_File>
/home/adria/Escritorio/rDock_2013.1_src/data/scripts/dock.prm

>  <Rbt.Receptor>
sah_rdock.prm

>  <SCORE>
-55.1595

>  <SCORE.INTER>
-15.3474

>  <SCORE.INTER.CONST>
1

>  <SCORE.INTER.POLAR>
0

>  <SCORE.INTER.REPUL>
0.0216193

>  <SCORE.INTER.ROT>
7

>  <SCORE.INTER.VDW>
-27.8555

>  <SCORE.INTER.norm>
-0.568423

>  <SCORE.INTRA>
-44.7927

>  <SCORE.INTRA.DIHEDRAL>
-97.878

>  <SCORE.INTRA.DIHEDRAL.0>
107.708

>  <SCORE.INTRA.POLAR>
0

>  <SCORE.INTRA.POLAR.0>
0

>  <SCORE.INTRA.REPUL>
0

>  <SCORE.INTRA.REPUL.0>
0

>  <SCORE.INTRA.VDW>
4.1463

>  <SCORE.INTRA.VDW.0>
-5.40071

>  <SCORE.INTRA.norm>
-1.65899

>  <SCORE.RESTR>
0

>  <SCORE.RESTR.CAVITY>
0

>  <SCORE.RESTR.norm>
0

>  <SCORE.SYSTEM>
4.9806

>  <SCORE.SYSTEM.CONST>
0

>  <SCORE.SYSTEM.DIHEDRAL>
8.56629

>  <SCORE.SYSTEM.POLAR>
-4.03019

>  <SCORE.SYSTEM.VDW>
14.4001

>  <SCORE.SYSTEM.norm>
0.184466

>  <SCORE.heavy>
27

>  <SCORE.norm>
-2.04294

$$$$
F3284-1643
  rDOCK(R)          3D
libRbt.so/2013.1/901 2013/11/27
 28 30  0  0  0  0  0  0  0  0999 V2000
  -20.6557   22.3127  -13.3906 C   0  0  0  0  0  0
  -20.9510   20.9345  -13.8925 C   0  0  0  0  0  0
  -21.7578   20.0405  -13.1641 O   0  0  0  0  0  0
  -23.1066   20.3100  -13.0632 C   0  0  0  0  0  0
  -24.1481   19.8279  -13.8623 C   0  0  0  0  0  0
  -24.2412   18.5126  -14.5332 C   0  0  0  0  0  0
  -23.3989   17.5270  -14.7230 N   0  0  0  0  0  0
  -22.0535   17.4624  -14.4113 N   0  0  0  0  0  0
  -20.9014   18.0050  -15.0497 C   0  0  0  0  0  0
  -20.9015   18.6415  -16.1884 C   0  0  0  0  0  0
  -22.3907   19.0315  -17.0337 Cl  0  0  0  0  0  0
  -19.6311   19.0665  -16.8566 C   0  0  0  0  0  0
  -19.6426   19.8663  -17.7945 O   0  0  0  0  0  0
  -18.4685   18.4954  -16.3638 N   0  3  0  0  0  0
  -17.1643   18.7403  -17.0590 C   0  0  0  0  0  0
  -16.2455   17.5687  -17.3821 C   0  0  0  0  0  0
  -15.0326   17.3109  -16.7385 C   0  0  0  0  0  0
  -14.1571   16.3000  -17.1809 C   0  0  0  0  0  0
  -14.5075   15.4631  -18.2270 C   0  0  0  0  0  0
  -15.7703   15.5937  -18.7848 C   0  0  0  0  0  0
  -16.6174   16.6442  -18.3846 C   0  0  0  0  0  0
  -18.3998   18.1387  -15.0286 N   0  0  0  0  0  0
  -19.5542   18.0072  -14.4206 C   0  0  0  0  0  0
  -25.2966   20.6300  -14.0620 C   0  0  0  0  0  0
  -25.5301   21.7458  -13.2728 C   0  0  0  0  0  0
  -24.6054   22.0593  -12.2964 C   0  0  0  0  0  0
  -23.4020   21.3559  -12.1873 C   0  0  0  0  0  0
  -21.8656   17.1648  -13.4519 H   0  0  0  0  0  0
  1  2  1  0  0  0
  2  3  1  0  0  0
  3  4  1  0  0  0
  4  5  2  0  0  0
  4 27  1  0  0  0
  5  6  1  0  0  0
  5 24  1  0  0  0
  6  7  2  0  0  0
  7  8  1  0  0  0
  8  9  1  0  0  0
  8 28  1  0  0  0
  9 10  2  0  0  0
  9 23  1  0  0  0
 10 11  1  0  0  0
 10 12  1  0  0  0
 12 13  2  0  0  0
 12 14  1  0  0  0
 14 15  1  0  0  0
 14 22  1  0  0  0
 15 16  1  0  0  0
 16 17  2  0  0  0
 16 21  1  0  0  0
 17 18  1  0  0  0
 18 19  2  0  0  0
 19 20  1  0  0  0
 20 21  2  0  0  0
 22 23  2  0  0  0
 24 25  2  0  0  0
 25 26  1  0  0  0
 26 27  2  0  0  0
M  END
>  <CHROM.0>
-177.12138930,68.09083541,78.45523406,-62.03204700,-29.73532836,-60.92017498
-157.46702202,-47.75871075

>  <CHROM.1>
69.66541925,94.68890766,-9.28569868,-77.90516148,-5.16412923,-131.61772566
-108.72920949,-20.43749967,18.90804689,-15.46362147,-2.53663784,-0.00972765
-2.32802730

>  <Name>
F3284-1643

>  <RI>
4.14007e+07

>  <Rbt.Current_Directory>
/home/adria/Escritorio/rDock_CMTR_LC/2pxcA_model/inputs_sah

>  <Rbt.Executable>
rbdock ($Id: //depot/dev/client3/rdock/2013.1/src/exe/rbdock.cxx#4 $)

>  <Rbt.Library>
libRbt.so (2013.1, Build901 2013/11/27)

>  <Rbt.Parameter_File>
/home/adria/Escritorio/rDock_2013.1_src/data/scripts/dock.prm

>  <Rbt.Receptor>
sah_rdock.prm

>  <SCORE>
-55.2433

>  <SCORE.INTER>
-6.2686

>  <SCORE.INTER.CONST>
1

>  <SCORE.INTER.POLAR>
0

>  <SCORE.INTER.REPUL>
0.0046518

>  <SCORE.INTER.ROT>
7

>  <SCORE.INTER.VDW>
-18.6919

>  <SCORE.INTER.norm>
-0.23217

>  <SCORE.INTRA>
-44.29

>  <SCORE.INTRA.DIHEDRAL>
-92.102

>  <SCORE.INTRA.DIHEDRAL.0>
107.708

>  <SCORE.INTRA.POLAR>
0

>  <SCORE.INTRA.POLAR.0>
0

>  <SCORE.INTRA.REPUL>
0

>  <SCORE.INTRA.REPUL.0>
0

>  <SCORE.INTRA.VDW>
1.76102

>  <SCORE.INTRA.VDW.0>
-5.40071

>  <SCORE.INTRA.norm>
-1.64037

>  <SCORE.RESTR>
0

>  <SCORE.RESTR.CAVITY>
0

>  <SCORE.RESTR.norm>
0

>  <SCORE.SYSTEM>
-4.68466

>  <SCORE.SYSTEM.CONST>
0

>  <SCORE.SYSTEM.DIHEDRAL>
8.55098

>  <SCORE.SYSTEM.POLAR>
-3.42006

>  <SCORE.SYSTEM.REPUL>
0.0174863

>  <SCORE.SYSTEM.VDW>
2.58063

>  <SCORE.SYSTEM.norm>
-0.173506

>  <SCORE.heavy>
27

>  <SCORE.norm>
-2.04605

$$$$
F3284-1643
  rDOCK(R)          3D
libRbt.so/2013.1/901 2013/11/27
 28 30  0  0  0  0  0  0  0  0999 V2000
  -24.5753   24.1580  -10.2976 C   0  0  0  0  0  0
  -23.6555   23.8852   -9.1495 C   0  0  0  0  0  0
  -22.5840   24.7440   -8.8416 O   0  0  0  0  0  0
  -21.5430   24.8399   -9.7413 C   0  0  0  0  0  0
  -21.0257   23.8444  -10.5761 C   0  0  0  0  0  0
  -21.7548   22.7235  -11.2093 C   0  0  0  0  0  0
  -21.3875   21.6866  -11.9212 N   0  0  0  0  0  0
  -20.1321   21.3644  -12.4023 N   0  0  0  0  0  0
  -19.7017   20.4342  -13.3917 C   0  0  0  0  0  0
  -20.4726   19.5830  -14.0104 C   0  0  0  0  0  0
  -22.2140   19.5721  -13.7828 Cl  0  0  0  0  0  0
  -19.9211   18.5493  -14.9423 C   0  0  0  0  0  0
  -20.6602   17.9155  -15.6983 O   0  0  0  0  0  0
  -18.5507   18.3514  -14.8828 N   0  3  0  0  0  0
  -17.9231   17.2388  -15.6655 C   0  0  0  0  0  0
  -16.5725   17.4525  -16.3375 C   0  0  0  0  0  0
  -15.5534   16.4985  -16.3911 C   0  0  0  0  0  0
  -14.2744   16.8053  -16.8952 C   0  0  0  0  0  0
  -14.0035   18.0502  -17.4377 C   0  0  0  0  0  0
  -15.0386   18.9671  -17.5403 C   0  0  0  0  0  0
  -16.2973   18.6817  -16.9788 C   0  0  0  0  0  0
  -17.7258   19.4083  -14.5405 N   0  0  0  0  0  0
  -18.3144   20.4060  -13.9257 C   0  0  0  0  0  0
  -19.6552   23.8772  -10.9267 C   0  0  0  0  0  0
  -18.8885   25.0084  -10.6921 C   0  0  0  0  0  0
  -19.4959   26.0959  -10.0961 C   0  0  0  0  0  0
  -20.8082   26.0204   -9.6198 C   0  0  0  0  0  0
  -19.4127   22.0532  -12.1736 H   0  0  0  0  0  0
  1  2  1  0  0  0
  2  3  1  0  0  0
  3  4  1  0  0  0
  4  5  2  0  0  0
  4 27  1  0  0  0
  5  6  1  0  0  0
  5 24  1  0  0  0
  6  7  2  0  0  0
  7  8  1  0  0  0
  8  9  1  0  0  0
  8 28  1  0  0  0
  9 10  2  0  0  0
  9 23  1  0  0  0
 10 11  1  0  0  0
 10 12  1  0  0  0
 12 13  2  0  0  0
 12 14  1  0  0  0
 14 15  1  0  0  0
 14 22  1  0  0  0
 15 16  1  0  0  0
 16 17  2  0  0  0
 16 21  1  0  0  0
 17 18  1  0  0  0
 18 19  2  0  0  0
 19 20  1  0  0  0
 20 21  2  0  0  0
 22 23  2  0  0  0
 24 25  2  0  0  0
 25 26  1  0  0  0
 26 27  2  0  0  0
M  END
>  <CHROM.0>
-61.08180929,-166.82600422,-128.59192472,63.80061853,167.84465318,61.78032648
80.88063209,-164.62658575

>  <CHROM.1>
-66.55835828,-33.41237210,-174.29469282,-164.95189746,-5.33261916,141.63300541
140.41348231,-19.59070532,20.90523338,-13.25128485,2.12652065,0.24463575
0.61891825

>  <Name>
F3284-1643

>  <RI>
4.14007e+07

>  <Rbt.Current_Directory>
/home/adria/Escritorio/rDock_CMTR_LC/2pxcA_model/inputs_sah

>  <Rbt.Executable>
rbdock ($Id: //depot/dev/client3/rdock/2013.1/src/exe/rbdock.cxx#4 $)

>  <Rbt.Library>
libRbt.so (2013.1, Build901 2013/11/27)

>  <Rbt.Parameter_File>
/home/adria/Escritorio/rDock_2013.1_src/data/scripts/dock.prm

>  <Rbt.Receptor>
sah_rdock.prm

>  <SCORE>
-60.9501

>  <SCORE.INTER>
-15.2178

>  <SCORE.INTER.CONST>
1

>  <SCORE.INTER.POLAR>
-0.853046

>  <SCORE.INTER.REPUL>
0.0171963

>  <SCORE.INTER.ROT>
7

>  <SCORE.INTER.VDW>
-24.8034

>  <SCORE.INTER.norm>
-0.563621

>  <SCORE.INTRA>
-44.8046

>  <SCORE.INTRA.DIHEDRAL>
-101.318

>  <SCORE.INTRA.DIHEDRAL.0>
107.708

>  <SCORE.INTRA.POLAR>
0

>  <SCORE.INTRA.POLAR.0>
0

>  <SCORE.INTRA.REPUL>
0

>  <SCORE.INTRA.REPUL.0>
0

>  <SCORE.INTRA.VDW>
5.8545

>  <SCORE.INTRA.VDW.0>
-5.40071

>  <SCORE.INTRA.norm>
-1.65943

>  <SCORE.RESTR>
0

>  <SCORE.RESTR.CAVITY>
0

>  <SCORE.RESTR.norm>
0

>  <SCORE.SYSTEM>
-0.927713

>  <SCORE.SYSTEM.CONST>
0

>  <SCORE.SYSTEM.DIHEDRAL>
6.34378

>  <SCORE.SYSTEM.POLAR>
-4.05742

>  <SCORE.SYSTEM.VDW>
9.69564

>  <SCORE.SYSTEM.norm>
-0.0343597

>  <SCORE.heavy>
27

>  <SCORE.norm>
-2.25741

$$$$
F3284-1643
  rDOCK(R)          3D
libRbt.so/2013.1/901 2013/11/27
 28 30  0  0  0  0  0  0  0  0999 V2000
  -23.6572   22.8803   -8.2900 C   0  0  0  0  0  0
  -24.1490   23.7376   -9.4133 C   0  0  0  0  0  0
  -23.5451   24.9714   -9.7196 O   0  0  0  0  0  0
  -22.2900   24.9613  -10.2913 C   0  0  0  0  0  0
  -21.6514   23.9121  -10.9597 C   0  0  0  0  0  0
  -22.2719   22.8521  -11.7845 C   0  0  0  0  0  0
  -21.8543   22.1183  -12.7865 N   0  0  0  0  0  0
  -20.6582   22.1901  -13.4761 N   0  0  0  0  0  0
  -20.1077   21.3839  -14.5136 C   0  0  0  0  0  0
  -20.6134   20.2605  -14.9424 C   0  0  0  0  0  0
  -22.1557   19.6548  -14.3604 Cl  0  0  0  0  0  0
  -19.9040   19.4064  -15.9465 C   0  0  0  0  0  0
  -20.4855   18.4836  -16.5207 O   0  0  0  0  0  0
  -18.5706   19.7135  -16.1669 N   0  3  0  0  0  0
  -17.7353   18.8271  -17.0390 C   0  0  0  0  0  0
  -17.5786   17.3518  -16.6921 C   0  0  0  0  0  0
  -18.6407   16.4653  -16.4982 C   0  0  0  0  0  0
  -18.4363   15.1512  -16.0340 C   0  0  0  0  0  0
  -17.1579   14.6594  -15.8310 C   0  0  0  0  0  0
  -16.0785   15.4640  -16.1628 C   0  0  0  0  0  0
  -16.2847   16.7969  -16.5653 C   0  0  0  0  0  0
  -18.1419   21.0214  -16.0238 N   0  0  0  0  0  0
  -18.9306   21.7990  -15.3216 C   0  0  0  0  0  0
  -20.2403   23.8175  -10.9128 C   0  0  0  0  0  0
  -19.4716   24.8790  -10.4603 C   0  0  0  0  0  0
  -20.1213   26.0245  -10.0451 C   0  0  0  0  0  0
  -21.5157   26.0731   -9.9556 C   0  0  0  0  0  0
  -20.1828   23.0902  -13.3860 H   0  0  0  0  0  0
  1  2  1  0  0  0
  2  3  1  0  0  0
  3  4  1  0  0  0
  4  5  2  0  0  0
  4 27  1  0  0  0
  5  6  1  0  0  0
  5 24  1  0  0  0
  6  7  2  0  0  0
  7  8  1  0  0  0
  8  9  1  0  0  0
  8 28  1  0  0  0
  9 10  2  0  0  0
  9 23  1  0  0  0
 10 11  1  0  0  0
 10 12  1  0  0  0
 12 13  2  0  0  0
 12 14  1  0  0  0
 14 15  1  0  0  0
 14 22  1  0  0  0
 15 16  1  0  0  0
 16 17  2  0  0  0
 16 21  1  0  0  0
 17 18  1  0  0  0
 18 19  2  0  0  0
 19 20  1  0  0  0
 20 21  2  0  0  0
 22 23  2  0  0  0
 24 25  2  0  0  0
 25 26  1  0  0  0
 26 27  2  0  0  0
M  END
>  <CHROM.0>
39.33027788,-74.98320141,-164.49755498,62.92084692,-31.03724582,-57.36028586
-36.75690871,-163.41172638

>  <CHROM.1>
71.24715139,19.54620450,152.79969327,175.75919025,-8.04069075,-57.90835784
54.76790374,-20.25117806,20.87581904,-13.59590937,2.02816324,0.43939944,0.49511108

>  <Name>
F3284-1643

>  <RI>
4.14007e+07

>  <Rbt.Current_Directory>
/home/adria/Escritorio/rDock_CMTR_LC/2pxcA_model/inputs_sah

>  <Rbt.Executable>
rbdock ($Id: //depot/dev/client3/rdock/2013.1/src/exe/rbdock.cxx#4 $)

>  <Rbt.Library>
libRbt.so (2013.1, Build901 2013/11/27)

>  <Rbt.Parameter_File>
/home/adria/Escritorio/rDock_2013.1_src/data/scripts/dock.prm

>  <Rbt.Receptor>
sah_rdock.prm

>  <SCORE>
-59.8161

>  <SCORE.INTER>
-10.8903

>  <SCORE.INTER.CONST>
1

>  <SCORE.INTER.POLAR>
0

>  <SCORE.INTER.REPUL>
0.135083

>  <SCORE.INTER.ROT>
7

>  <SCORE.INTER.VDW>
-23.9657

>  <SCORE.INTER.norm>
-0.403345

>  <SCORE.INTRA>
-45.7773

>  <SCORE.INTRA.DIHEDRAL>
-99.5079

>  <SCORE.INTRA.DIHEDRAL.0>
107.708

>  <SCORE.INTRA.POLAR>
0

>  <SCORE.INTRA.POLAR.0>
0

>  <SCORE.INTRA.REPUL>
0

>  <SCORE.INTRA.REPUL.0>
0

>  <SCORE.INTRA.VDW>
3.9767

>  <SCORE.INTRA.VDW.0>
-5.40071

>  <SCORE.INTRA.norm>
-1.69545

>  <SCORE.RESTR>
0

>  <SCORE.RESTR.CAVITY>
0

>  <SCORE.RESTR.norm>
0

>  <SCORE.SYSTEM>
-3.14854

>  <SCORE.SYSTEM.CONST>
0

>  <SCORE.SYSTEM.DIHEDRAL>
8.55525

>  <SCORE.SYSTEM.POLAR>
-3.9475

>  <SCORE.SYSTEM.REPUL>
0.167242

>  <SCORE.SYSTEM.VDW>
5.15913

>  <SCORE.SYSTEM.norm>
-0.116613

>  <SCORE.heavy>
27

>  <SCORE.norm>
-2.21541

$$$$
F3284-1643
  rDOCK(R)          3D
libRbt.so/2013.1/901 2013/11/27
 28 30  0  0  0  0  0  0  0  0999 V2000
  -18.4380   13.3928  -16.7939 C   0  0  0  0  0  0
  -18.5733   14.8606  -16.5376 C   0  0  0  0  0  0
  -18.0063   15.8164  -17.4010 O   0  0  0  0  0  0
  -18.1069   17.1486  -17.0588 C   0  0  0  0  0  0
  -18.8191   17.7189  -15.9990 C   0  0  0  0  0  0
  -19.0835   17.1338  -14.6661 C   0  0  0  0  0  0
  -19.3404   17.6406  -13.4854 N   0  0  0  0  0  0
  -19.3473   18.9660  -13.0921 N   0  0  0  0  0  0
  -20.2724   19.7246  -12.3188 C   0  0  0  0  0  0
  -21.4220   19.2902  -11.8815 C   0  0  0  0  0  0
  -21.9242   17.6205  -12.0914 Cl  0  0  0  0  0  0
  -22.3951   20.1910  -11.1867 C   0  0  0  0  0  0
  -23.3589   19.7316  -10.5706 O   0  0  0  0  0  0
  -22.1463   21.5498  -11.2974 N   0  3  0  0  0  0
  -23.1407   22.5360  -10.7656 C   0  0  0  0  0  0
  -22.7173   23.9772  -10.5104 C   0  0  0  0  0  0
  -22.4155   24.9043  -11.5108 C   0  0  0  0  0  0
  -21.8871   26.1752  -11.2110 C   0  0  0  0  0  0
  -21.7246   26.5864   -9.8988 C   0  0  0  0  0  0
  -22.1601   25.7483   -8.8836 C   0  0  0  0  0  0
  -22.6279   24.4551   -9.1831 C   0  0  0  0  0  0
  -20.8417   21.9938  -11.4225 N   0  0  0  0  0  0
  -19.9747   21.0911  -11.8140 C   0  0  0  0  0  0
  -19.3436   19.0255  -16.1402 C   0  0  0  0  0  0
  -18.9371   19.8458  -17.1815 C   0  0  0  0  0  0
  -18.0171   19.3480  -18.0829 C   0  0  0  0  0  0
  -17.6029   18.0136  -18.0314 C   0  0  0  0  0  0
  -18.4401   19.4280  -13.1811 H   0  0  0  0  0  0
  1  2  1  0  0  0
  2  3  1  0  0  0
  3  4  1  0  0  0
  4  5  2  0  0  0
  4 27  1  0  0  0
  5  6  1  0  0  0
  5 24  1  0  0  0
  6  7  2  0  0  0
  7  8  1  0  0  0
  8  9  1  0  0  0
  8 28  1  0  0  0
  9 10  2  0  0  0
  9 23  1  0  0  0
 10 11  1  0  0  0
 10 12  1  0  0  0
 12 13  2  0  0  0
 12 14  1  0  0  0
 14 15  1  0  0  0
 14 22  1  0  0  0
 15 16  1  0  0  0
 16 17  2  0  0  0
 16 21  1  0  0  0
 17 18  1  0  0  0
 18 19  2  0  0  0
 19 20  1  0  0  0
 20 21  2  0  0  0
 22 23  2  0  0  0
 24 25  2  0  0  0
 25 26  1  0  0  0
 26 27  2  0  0  0
M  END
>  <CHROM.0>
-60.62736328,68.11030323,-8.29742798,65.03533594,-30.37796604,62.40880808
-156.40988416,-161.87265398

>  <CHROM.1>
-176.33632306,-6.45234681,154.89400407,134.08212233,-5.36301068,162.18783486
70.07274134,-20.53933526,19.94080117,-13.24909447,0.87362029,-0.97906245
-3.05648905

>  <Name>
F3284-1643

>  <RI>
4.14007e+07

>  <Rbt.Current_Directory>
/home/adria/Escritorio/rDock_CMTR_LC/2pxcA_model/inputs_sah

>  <Rbt.Executable>
rbdock ($Id: //depot/dev/client3/rdock/2013.1/src/exe/rbdock.cxx#4 $)

>  <Rbt.Library>
libRbt.so (2013.1, Build901 2013/11/27)

>  <Rbt.Parameter_File>
/home/adria/Escritorio/rDock_2013.1_src/data/scripts/dock.prm

>  <Rbt.Receptor>
sah_rdock.prm

>  <SCORE>
-65.6481

>  <SCORE.INTER>
-13.8054

>  <SCORE.INTER.CONST>
1

>  <SCORE.INTER.POLAR>
-0.824621

>  <SCORE.INTER.REPUL>
0

>  <SCORE.INTER.ROT>
7

>  <SCORE.INTER.VDW>
-23.4017

>  <SCORE.INTER.norm>
-0.511311

>  <SCORE.INTRA>
-44.6521

>  <SCORE.INTRA.DIHEDRAL>
-97.0556

>  <SCORE.INTRA.DIHEDRAL.0>
107.708

>  <SCORE.INTRA.POLAR>
0

>  <SCORE.INTRA.POLAR.0>
0

>  <SCORE.INTRA.REPUL>
0

>  <SCORE.INTRA.REPUL.0>
0

>  <SCORE.INTRA.VDW>
3.87572

>  <SCORE.INTRA.VDW.0>
-5.40071

>  <SCORE.INTRA.norm>
-1.65378

>  <SCORE.RESTR>
0

>  <SCORE.RESTR.CAVITY>
0

>  <SCORE.RESTR.norm>
0

>  <SCORE.SYSTEM>
-7.19064

>  <SCORE.SYSTEM.CONST>
0

>  <SCORE.SYSTEM.DIHEDRAL>
9.09393

>  <SCORE.SYSTEM.POLAR>
-4.37804

>  <SCORE.SYSTEM.VDW>
3.14774

>  <SCORE.SYSTEM.norm>
-0.26632

>  <SCORE.heavy>
27

>  <SCORE.norm>
-2.43141

$$$$
F3284-1643
  rDOCK(R)          3D
libRbt.so/2013.1/901 2013/11/27
 28 30  0  0  0  0  0  0  0  0999 V2000
  -18.7480   13.1409  -17.8112 C   0  0  0  0  0  0
  -17.9961   13.4556  -19.0659 C   0  0  0  0  0  0
  -17.8035   14.7808  -19.4987 O   0  0  0  0  0  0
  -17.0614   15.6277  -18.7024 C   0  0  0  0  0  0
  -17.5200   16.6251  -17.8361 C   0  0  0  0  0  0
  -18.7751   16.6383  -17.0529 C   0  0  0  0  0  0
  -19.4761   17.5822  -16.4746 N   0  0  0  0  0  0
  -19.1776   18.9252  -16.3373 N   0  0  0  0  0  0
  -19.4196   19.8511  -15.2822 C   0  0  0  0  0  0
  -20.1045   19.5981  -14.2012 C   0  0  0  0  0  0
  -20.7201   17.9920  -13.8469 Cl  0  0  0  0  0  0
  -20.4243   20.6644  -13.2003 C   0  0  0  0  0  0
  -20.8551   20.3779  -12.0814 O   0  0  0  0  0  0
  -20.2191   21.9690  -13.6204 N   0  3  0  0  0  0
  -20.6483   23.1095  -12.7491 C   0  0  0  0  0  0
  -22.0923   23.5940  -12.7909 C   0  0  0  0  0  0
  -22.4772   24.9346  -12.8703 C   0  0  0  0  0  0
  -23.8247   25.3286  -12.7555 C   0  0  0  0  0  0
  -24.8339   24.3872  -12.6426 C   0  0  0  0  0  0
  -24.4977   23.0440  -12.7170 C   0  0  0  0  0  0
  -23.1465   22.6528  -12.7675 C   0  0  0  0  0  0
  -19.2236   22.2370  -14.5434 N   0  0  0  0  0  0
  -18.8086   21.2059  -15.2395 C   0  0  0  0  0  0
  -16.7171   17.7678  -17.6081 C   0  0  0  0  0  0
  -15.3872   17.7915  -17.9995 C   0  0  0  0  0  0
  -14.8724   16.6752  -18.6285 C   0  0  0  0  0  0
  -15.6943   15.6011  -18.9828 C   0  0  0  0  0  0
  -18.4782   19.2629  -17.0016 H   0  0  0  0  0  0
  1  2  1  0  0  0
  2  3  1  0  0  0
  3  4  1  0  0  0
  4  5  2  0  0  0
  4 27  1  0  0  0
  5  6  1  0  0  0
  5 24  1  0  0  0
  6  7  2  0  0  0
  7  8  1  0  0  0
  8  9  1  0  0  0
  8 28  1  0  0  0
  9 10  2  0  0  0
  9 23  1  0  0  0
 10 11  1  0  0  0
 10 12  1  0  0  0
 12 13  2  0  0  0
 12 14  1  0  0  0
 14 15  1  0  0  0
 14 22  1  0  0  0
 15 16  1  0  0  0
 16 17  2  0  0  0
 16 21  1  0  0  0
 17 18  1  0  0  0
 18 19  2  0  0  0
 19 20  1  0  0  0
 20 21  2  0  0  0
 22 23  2  0  0  0
 24 25  2  0  0  0
 25 26  1  0  0  0
 26 27  2  0  0  0
M  END
>  <CHROM.0>
-178.90281070,-73.21543654,110.85338888,64.48571966,-29.99258999,60.76740197
83.69762162,-161.66689893

>  <CHROM.1>
63.57724722,-101.90063948,-160.84592574,-143.67142421,-5.34019419,-83.85420500
-133.76992020,-19.69933639,19.31888966,-15.38527936,0.97411241,-0.50955434
-2.84213807

>  <Name>
F3284-1643

>  <RI>
4.14007e+07

>  <Rbt.Current_Directory>
/home/adria/Escritorio/rDock_CMTR_LC/2pxcA_model/inputs_sah

>  <Rbt.Executable>
rbdock ($Id: //depot/dev/client3/rdock/2013.1/src/exe/rbdock.cxx#4 $)

>  <Rbt.Library>
libRbt.so (2013.1, Build901 2013/11/27)

>  <Rbt.Parameter_File>
/home/adria/Escritorio/rDock_2013.1_src/data/scripts/dock.prm

>  <Rbt.Receptor>
sah_rdock.prm

>  <SCORE>
-62.4665

>  <SCORE.INTER>
-11.2738

>  <SCORE.INTER.CONST>
1

>  <SCORE.INTER.POLAR>
0

>  <SCORE.INTER.REPUL>
0.0353935

>  <SCORE.INTER.ROT>
7

>  <SCORE.INTER.VDW>
-23.8508

>  <SCORE.INTER.norm>
-0.417548

>  <SCORE.INTRA>
-44.2105

>  <SCORE.INTRA.DIHEDRAL>
-95.5127

>  <SCORE.INTRA.DIHEDRAL.0>
107.708

>  <SCORE.INTRA.POLAR>
0

>  <SCORE.INTRA.POLAR.0>
0

>  <SCORE.INTRA.REPUL>
0

>  <SCORE.INTRA.REPUL.0>
0

>  <SCORE.INTRA.VDW>
3.54588

>  <SCORE.INTRA.VDW.0>
-5.40071

>  <SCORE.INTRA.norm>
-1.63742

>  <SCORE.RESTR>
0

>  <SCORE.RESTR.CAVITY>
0

>  <SCORE.RESTR.norm>
0

>  <SCORE.SYSTEM>
-6.98221

>  <SCORE.SYSTEM.CONST>
0

>  <SCORE.SYSTEM.DIHEDRAL>
9.62488

>  <SCORE.SYSTEM.POLAR>
-4.59661

>  <SCORE.SYSTEM.REPUL>
0.038918

>  <SCORE.SYSTEM.VDW>
3.63923

>  <SCORE.SYSTEM.norm>
-0.2586

>  <SCORE.heavy>
27

>  <SCORE.norm>
-2.31357

$$$$
F3284-1643
  rDOCK(R)          3D
libRbt.so/2013.1/901 2013/11/27
 28 30  0  0  0  0  0  0  0  0999 V2000
  -20.2750   25.7003  -10.0094 C   0  0  0  0  0  0
  -21.4614   25.0212  -10.6175 C   0  0  0  0  0  0
  -22.4803   25.7493  -11.2597 O   0  0  0  0  0  0
  -23.5260   25.0509  -11.8261 C   0  0  0  0  0  0
  -24.3043   24.0407  -11.2520 C   0  0  0  0  0  0
  -24.6896   23.8903   -9.8315 C   0  0  0  0  0  0
  -24.9738   22.8623   -9.0705 N   0  0  0  0  0  0
  -25.0970   21.5305   -9.4205 N   0  0  0  0  0  0
  -24.2170   20.6394  -10.0995 C   0  0  0  0  0  0
  -24.4450   19.3727  -10.3115 C   0  0  0  0  0  0
  -25.9733   18.6204   -9.8846 Cl  0  0  0  0  0  0
  -23.4123   18.4742  -10.9177 C   0  0  0  0  0  0
  -23.7100   17.3524  -11.3328 O   0  0  0  0  0  0
  -22.1227   18.9797  -10.9629 N   0  3  0  0  0  0
  -20.9935   18.1040  -11.4126 C   0  0  0  0  0  0
  -20.4412   18.2447  -12.8256 C   0  0  0  0  0  0
  -20.9105   17.5371  -13.9349 C   0  0  0  0  0  0
  -20.2629   17.5994  -15.1842 C   0  0  0  0  0  0
  -19.1776   18.4363  -15.3818 C   0  0  0  0  0  0
  -18.7845   19.2671  -14.3435 C   0  0  0  0  0  0
  -19.3916   19.1571  -13.0784 C   0  0  0  0  0  0
  -21.9319   20.3450  -11.0834 N   0  0  0  0  0  0
  -22.9622   21.0885  -10.7587 C   0  0  0  0  0  0
  -24.8508   23.0319  -12.0801 C   0  0  0  0  0  0
  -24.8639   23.1743  -13.4592 C   0  0  0  0  0  0
  -24.3180   24.3207  -14.0018 C   0  0  0  0  0  0
  -23.6514   25.2533  -13.2014 C   0  0  0  0  0  0
  -25.8441   21.0404   -8.9245 H   0  0  0  0  0  0
  1  2  1  0  0  0
  2  3  1  0  0  0
  3  4  1  0  0  0
  4  5  2  0  0  0
  4 27  1  0  0  0
  5  6  1  0  0  0
  5 24  1  0  0  0
  6  7  2  0  0  0
  7  8  1  0  0  0
  8  9  1  0  0  0
  8 28  1  0  0  0
  9 10  2  0  0  0
  9 23  1  0  0  0
 10 11  1  0  0  0
 10 12  1  0  0  0
 12 13  2  0  0  0
 12 14  1  0  0  0
 14 15  1  0  0  0
 14 22  1  0  0  0
 15 16  1  0  0  0
 16 17  2  0  0  0
 16 21  1  0  0  0
 17 18  1  0  0  0
 18 19  2  0  0  0
 19 20  1  0  0  0
 20 21  2  0  0  0
 22 23  2  0  0  0
 24 25  2  0  0  0
 25 26  1  0  0  0
 26 27  2  0  0  0
M  END
>  <CHROM.0>
-177.44157582,65.97379911,74.99806522,66.04673380,-30.55825489,52.99407469
84.27572097,-166.44179344

>  <CHROM.1>
178.38286063,49.18805022,-151.64166974,54.06330567,176.71865060,101.77362814
-89.89059440,-22.89452606,21.09540553,-11.61499679,-2.04424935,-0.61879544
-3.12706105

>  <Name>
F3284-1643

>  <RI>
4.14007e+07

>  <Rbt.Current_Directory>
/home/adria/Escritorio/rDock_CMTR_LC/2pxcA_model/inputs_sah

>  <Rbt.Executable>
rbdock ($Id: //depot/dev/client3/rdock/2013.1/src/exe/rbdock.cxx#4 $)

>  <Rbt.Library>
libRbt.so (2013.1, Build901 2013/11/27)

>  <Rbt.Parameter_File>
/home/adria/Escritorio/rDock_2013.1_src/data/scripts/dock.prm

>  <Rbt.Receptor>
sah_rdock.prm

>  <SCORE>
-62.9726

>  <SCORE.INTER>
-11.4329

>  <SCORE.INTER.CONST>
1

>  <SCORE.INTER.POLAR>
-0.860073

>  <SCORE.INTER.REPUL>
0

>  <SCORE.INTER.ROT>
7

>  <SCORE.INTER.VDW>
-20.9086

>  <SCORE.INTER.norm>
-0.42344

>  <SCORE.INTRA>
-44.8106

>  <SCORE.INTRA.DIHEDRAL>
-94.2176

>  <SCORE.INTRA.DIHEDRAL.0>
107.708

>  <SCORE.INTRA.POLAR>
0

>  <SCORE.INTRA.POLAR.0>
0

>  <SCORE.INTRA.REPUL>
0

>  <SCORE.INTRA.REPUL.0>
0

>  <SCORE.INTRA.VDW>
2.29818

>  <SCORE.INTRA.VDW.0>
-5.40071

>  <SCORE.INTRA.norm>
-1.65965

>  <SCORE.RESTR>
0

>  <SCORE.RESTR.CAVITY>
0

>  <SCORE.RESTR.norm>
0

>  <SCORE.SYSTEM>
-6.72911

>  <SCORE.SYSTEM.CONST>
0

>  <SCORE.SYSTEM.DIHEDRAL>
6.05939

>  <SCORE.SYSTEM.POLAR>
-3.70642

>  <SCORE.SYSTEM.VDW>
2.84302

>  <SCORE.SYSTEM.norm>
-0.249226

>  <SCORE.heavy>
27

>  <SCORE.norm>
-2.33232

$$$$
F3284-1643
  rDOCK(R)          3D
libRbt.so/2013.1/901 2013/11/27
 28 30  0  0  0  0  0  0  0  0999 V2000
  -14.2965   18.1119  -18.2684 C   0  0  0  0  0  0
  -15.4485   17.5443  -17.5006 C   0  0  0  0  0  0
  -15.8134   16.1896  -17.6107 O   0  0  0  0  0  0
  -16.9549   15.7648  -16.9636 C   0  0  0  0  0  0
  -17.9794   16.5426  -16.4150 C   0  0  0  0  0  0
  -18.4765   17.8526  -16.8904 C   0  0  0  0  0  0
  -19.0761   18.8626  -16.3099 N   0  0  0  0  0  0
  -19.5367   18.9690  -15.0107 N   0  0  0  0  0  0
  -19.7983   20.0985  -14.1830 C   0  0  0  0  0  0
  -20.3345   20.0527  -12.9947 C   0  0  0  0  0  0
  -20.6898   18.5302  -12.1947 Cl  0  0  0  0  0  0
  -20.6970   21.2952  -12.2425 C   0  0  0  0  0  0
  -20.9745   21.2539  -11.0422 O   0  0  0  0  0  0
  -20.7119   22.4670  -12.9824 N   0  3  0  0  0  0
  -21.2050   23.7367  -12.3587 C   0  0  0  0  0  0
  -22.6553   23.8450  -11.9044 C   0  0  0  0  0  0
  -23.7618   23.7337  -12.7499 C   0  0  0  0  0  0
  -25.0709   23.9906  -12.2978 C   0  0  0  0  0  0
  -25.3193   24.2837  -10.9675 C   0  0  0  0  0  0
  -24.2604   24.2489  -10.0729 C   0  0  0  0  0  0
  -22.9458   24.0552  -10.5371 C   0  0  0  0  0  0
  -19.8562   22.6001  -14.0616 N   0  0  0  0  0  0
  -19.3750   21.4782  -14.5406 C   0  0  0  0  0  0
  -18.6916   16.0585  -15.2922 C   0  0  0  0  0  0
  -18.5859   14.7324  -14.9013 C   0  0  0  0  0  0
  -17.7574   13.9018  -15.6296 C   0  0  0  0  0  0
  -16.9445   14.4047  -16.6500 C   0  0  0  0  0  0
  -19.9687   18.1141  -14.6543 H   0  0  0  0  0  0
  1  2  1  0  0  0
  2  3  1  0  0  0
  3  4  1  0  0  0
  4  5  2  0  0  0
  4 27  1  0  0  0
  5  6  1  0  0  0
  5 24  1  0  0  0
  6  7  2  0  0  0
  7  8  1  0  0  0
  8  9  1  0  0  0
  8 28  1  0  0  0
  9 10  2  0  0  0
  9 23  1  0  0  0
 10 11  1  0  0  0
 10 12  1  0  0  0
 12 13  2  0  0  0
 12 14  1  0  0  0
 14 15  1  0  0  0
 14 22  1  0  0  0
 15 16  1  0  0  0
 16 17  2  0  0  0
 16 21  1  0  0  0
 17 18  1  0  0  0
 18 19  2  0  0  0
 19 20  1  0  0  0
 20 21  2  0  0  0
 22 23  2  0  0  0
 24 25  2  0  0  0
 25 26  1  0  0  0
 26 27  2  0  0  0
M  END
>  <CHROM.0>
39.90182107,-168.89193450,74.12125439,-62.35921892,168.23791682,-179.50071777
83.87716920,-162.52960646

>  <CHROM.1>
-174.46766381,14.32163285,-154.28865472,157.02507536,174.38515154,-63.41126140
-61.43920620,-19.88389940,19.71276011,-14.08812670,-0.65340921,0.76471685
-0.11913594

>  <Name>
F3284-1643

>  <RI>
4.14007e+07

>  <Rbt.Current_Directory>
/home/adria/Escritorio/rDock_CMTR_LC/2pxcA_model/inputs_sah

>  <Rbt.Executable>
rbdock ($Id: //depot/dev/client3/rdock/2013.1/src/exe/rbdock.cxx#4 $)

>  <Rbt.Library>
libRbt.so (2013.1, Build901 2013/11/27)

>  <Rbt.Parameter_File>
/home/adria/Escritorio/rDock_2013.1_src/data/scripts/dock.prm

>  <Rbt.Receptor>
sah_rdock.prm

>  <SCORE>
-51.8561

>  <SCORE.INTER>
-8.98022

>  <SCORE.INTER.CONST>
1

>  <SCORE.INTER.POLAR>
0

>  <SCORE.INTER.REPUL>
0.127743

>  <SCORE.INTER.ROT>
7

>  <SCORE.INTER.VDW>
-22.0189

>  <SCORE.INTER.norm>
-0.332601

>  <SCORE.INTRA>
-45.8303

>  <SCORE.INTRA.DIHEDRAL>
-98.8747

>  <SCORE.INTRA.DIHEDRAL.0>
107.708

>  <SCORE.INTRA.POLAR>
0

>  <SCORE.INTRA.POLAR.0>
0

>  <SCORE.INTRA.REPUL>
0

>  <SCORE.INTRA.REPUL.0>
0

>  <SCORE.INTRA.VDW>
3.60707

>  <SCORE.INTRA.VDW.0>
-5.40071

>  <SCORE.INTRA.norm>
-1.69742

>  <SCORE.RESTR>
0

>  <SCORE.RESTR.CAVITY>
0

>  <SCORE.RESTR.norm>
0

>  <SCORE.SYSTEM>
2.95444

>  <SCORE.SYSTEM.CONST>
0

>  <SCORE.SYSTEM.DIHEDRAL>
5.23302

>  <SCORE.SYSTEM.POLAR>
-3.59465

>  <SCORE.SYSTEM.REPUL>
0.123516

>  <SCORE.SYSTEM.VDW>
11.9422

>  <SCORE.SYSTEM.norm>
0.109424

>  <SCORE.heavy>
27

>  <SCORE.norm>
-1.92059

$$$$
F3284-1643
  rDOCK(R)          3D
libRbt.so/2013.1/901 2013/11/27
 28 30  0  0  0  0  0  0  0  0999 V2000
  -27.0556   21.9884  -12.1561 C   0  0  0  0  0  0
  -25.6185   21.8688  -12.5549 C   0  0  0  0  0  0
  -25.1614   22.3105  -13.8105 O   0  0  0  0  0  0
  -25.6479   21.6867  -14.9403 C   0  0  0  0  0  0
  -25.6039   20.3274  -15.2658 C   0  0  0  0  0  0
  -25.6569   19.1724  -14.3427 C   0  0  0  0  0  0
  -24.9373   18.7966  -13.3143 N   0  0  0  0  0  0
  -23.7789   19.3604  -12.8126 N   0  0  0  0  0  0
  -22.5179   19.6389  -13.4141 C   0  0  0  0  0  0
  -21.5115   20.2173  -12.8189 C   0  0  0  0  0  0
  -21.5491   20.6169  -11.1092 Cl  0  0  0  0  0  0
  -20.2653   20.5928  -13.5584 C   0  0  0  0  0  0
  -19.2394   20.9130  -12.9546 O   0  0  0  0  0  0
  -20.3526   20.5690  -14.9414 N   0  3  0  0  0  0
  -19.2094   21.0702  -15.7697 C   0  0  0  0  0  0
  -18.1623   20.0922  -16.2877 C   0  0  0  0  0  0
  -16.7956   20.1722  -16.0092 C   0  0  0  0  0  0
  -15.8590   19.3277  -16.6365 C   0  0  0  0  0  0
  -16.2707   18.3234  -17.4963 C   0  0  0  0  0  0
  -17.6308   18.1188  -17.6723 C   0  0  0  0  0  0
  -18.5616   19.0031  -17.0955 C   0  0  0  0  0  0
  -21.2132   19.6742  -15.5525 N   0  0  0  0  0  0
  -22.1590   19.1885  -14.7849 C   0  0  0  0  0  0
  -25.5389   19.9423  -16.6258 C   0  0  0  0  0  0
  -25.7941   20.8567  -17.6363 C   0  0  0  0  0  0
  -26.1004   22.1550  -17.2792 C   0  0  0  0  0  0
  -26.0277   22.5751  -15.9477 C   0  0  0  0  0  0
  -23.9108   19.8599  -11.9309 H   0  0  0  0  0  0
  1  2  1  0  0  0
  2  3  1  0  0  0
  3  4  1  0  0  0
  4  5  2  0  0  0
  4 27  1  0  0  0
  5  6  1  0  0  0
  5 24  1  0  0  0
  6  7  2  0  0  0
  7  8  1  0  0  0
  8  9  1  0  0  0
  8 28  1  0  0  0
  9 10  2  0  0  0
  9 23  1  0  0  0
 10 11  1  0  0  0
 10 12  1  0  0  0
 12 13  2  0  0  0
 12 14  1  0  0  0
 14 15  1  0  0  0
 14 22  1  0  0  0
 15 16  1  0  0  0
 16 17  2  0  0  0
 16 21  1  0  0  0
 17 18  1  0  0  0
 18 19  2  0  0  0
 19 20  1  0  0  0
 20 21  2  0  0  0
 22 23  2  0  0  0
 24 25  2  0  0  0
 25 26  1  0  0  0
 26 27  2  0  0  0
M  END
>  <CHROM.0>
-61.63607626,-78.03582716,110.78516624,61.41120343,168.16636900,62.69862163
-156.79122122,-160.43086509

>  <CHROM.1>
-63.60122422,-56.56778944,-56.79675652,-56.32192060,177.94440301,94.50682977
-121.48221574,-22.15538697,20.35927159,-14.64517606,-2.89568967,0.18517780
-1.66034587

>  <Name>
F3284-1643

>  <RI>
4.14007e+07

>  <Rbt.Current_Directory>
/home/adria/Escritorio/rDock_CMTR_LC/2pxcA_model/inputs_sah

>  <Rbt.Executable>
rbdock ($Id: //depot/dev/client3/rdock/2013.1/src/exe/rbdock.cxx#4 $)

>  <Rbt.Library>
libRbt.so (2013.1, Build901 2013/11/27)

>  <Rbt.Parameter_File>
/home/adria/Escritorio/rDock_2013.1_src/data/scripts/dock.prm

>  <Rbt.Receptor>
sah_rdock.prm

>  <SCORE>
-49.4721

>  <SCORE.INTER>
-5.00131

>  <SCORE.INTER.CONST>
1

>  <SCORE.INTER.POLAR>
0

>  <SCORE.INTER.REPUL>
0.0537773

>  <SCORE.INTER.ROT>
7

>  <SCORE.INTER.VDW>
-17.6702

>  <SCORE.INTER.norm>
-0.185234

>  <SCORE.INTRA>
-41.8144

>  <SCORE.INTRA.DIHEDRAL>
-86.9822

>  <SCORE.INTRA.DIHEDRAL.0>
107.708

>  <SCORE.INTRA.POLAR>
0

>  <SCORE.INTRA.POLAR.0>
0

>  <SCORE.INTRA.REPUL>
0

>  <SCORE.INTRA.REPUL.0>
0

>  <SCORE.INTRA.VDW>
1.67669

>  <SCORE.INTRA.VDW.0>
-5.40071

>  <SCORE.INTRA.norm>
-1.54868

>  <SCORE.RESTR>
0

>  <SCORE.RESTR.CAVITY>
0

>  <SCORE.RESTR.norm>
0

>  <SCORE.SYSTEM>
-2.65641

>  <SCORE.SYSTEM.CONST>
0

>  <SCORE.SYSTEM.DIHEDRAL>
7.30636

>  <SCORE.SYSTEM.POLAR>
-4.67078

>  <SCORE.SYSTEM.REPUL>
0.0462618

>  <SCORE.SYSTEM.VDW>
9.33975

>  <SCORE.SYSTEM.norm>
-0.0983856

>  <SCORE.heavy>
27

>  <SCORE.norm>
-1.8323

$$$$
F3284-1643
  rDOCK(R)          3D
libRbt.so/2013.1/901 2013/11/27
 28 30  0  0  0  0  0  0  0  0999 V2000
  -14.3775   16.7381  -17.0281 C   0  0  0  0  0  0
  -15.5728   17.5108  -16.5667 C   0  0  0  0  0  0
  -16.8606   17.2496  -17.0707 O   0  0  0  0  0  0
  -17.9048   18.0406  -16.6392 C   0  0  0  0  0  0
  -18.9676   17.6898  -15.8008 C   0  0  0  0  0  0
  -18.9595   16.7173  -14.6859 C   0  0  0  0  0  0
  -19.6792   16.5723  -13.6006 N   0  0  0  0  0  0
  -20.6660   17.3988  -13.0962 N   0  0  0  0  0  0
  -20.7388   18.8137  -12.9480 C   0  0  0  0  0  0
  -21.7819   19.4736  -12.5259 C   0  0  0  0  0  0
  -23.2251   18.6571  -11.9474 Cl  0  0  0  0  0  0
  -21.8225   20.9700  -12.5227 C   0  0  0  0  0  0
  -22.6991   21.5811  -11.9082 O   0  0  0  0  0  0
  -20.8328   21.6033  -13.2576 N   0  3  0  0  0  0
  -20.8741   23.0897  -13.4393 C   0  0  0  0  0  0
  -20.8166   24.0043  -12.2221 C   0  0  0  0  0  0
  -19.9245   23.8532  -11.1578 C   0  0  0  0  0  0
  -20.0179   24.6394   -9.9928 C   0  0  0  0  0  0
  -20.9531   25.6558   -9.8937 C   0  0  0  0  0  0
  -21.7499   25.9319  -10.9944 C   0  0  0  0  0  0
  -21.6988   25.1051  -12.1324 C   0  0  0  0  0  0
  -19.5960   20.9979  -13.3949 N   0  0  0  0  0  0
  -19.5698   19.7092  -13.1534 C   0  0  0  0  0  0
  -20.2178   18.3330  -15.9608 C   0  0  0  0  0  0
  -20.3336   19.4798  -16.7314 C   0  0  0  0  0  0
  -19.1988   19.9687  -17.3478 C   0  0  0  0  0  0
  -17.9933   19.2615  -17.3099 C   0  0  0  0  0  0
  -21.5804   16.9494  -13.0166 H   0  0  0  0  0  0
  1  2  1  0  0  0
  2  3  1  0  0  0
  3  4  1  0  0  0
  4  5  2  0  0  0
  4 27  1  0  0  0
  5  6  1  0  0  0
  5 24  1  0  0  0
  6  7  2  0  0  0
  7  8  1  0  0  0
  8  9  1  0  0  0
  8 28  1  0  0  0
  9 10  2  0  0  0
  9 23  1  0  0  0
 10 11  1  0  0  0
 10 12  1  0  0  0
 12 13  2  0  0  0
 12 14  1  0  0  0
 14 15  1  0  0  0
 14 22  1  0  0  0
 15 16  1  0  0  0
 16 17  2  0  0  0
 16 21  1  0  0  0
 17 18  1  0  0  0
 18 19  2  0  0  0
 19 20  1  0  0  0
 20 21  2  0  0  0
 22 23  2  0  0  0
 24 25  2  0  0  0
 25 26  1  0  0  0
 26 27  2  0  0  0
M  END
>  <CHROM.0>
-57.28725178,-77.39979817,-168.65329011,-60.54703967,-28.62057270,59.60739532
80.91285928,-159.14236778

>  <CHROM.1>
-177.32323616,-109.74446212,155.22624344,-44.14579304,175.40840960,60.51439813
45.55176868,-20.04648839,20.18999265,-13.74382008,-0.99674972,0.62654278
0.31673860

>  <Name>
F3284-1643

>  <RI>
4.14007e+07

>  <Rbt.Current_Directory>
/home/adria/Escritorio/rDock_CMTR_LC/2pxcA_model/inputs_sah

>  <Rbt.Executable>
rbdock ($Id: //depot/dev/client3/rdock/2013.1/src/exe/rbdock.cxx#4 $)

>  <Rbt.Library>
libRbt.so (2013.1, Build901 2013/11/27)

>  <Rbt.Parameter_File>
/home/adria/Escritorio/rDock_2013.1_src/data/scripts/dock.prm

>  <Rbt.Receptor>
sah_rdock.prm

>  <SCORE>
-68.2135

>  <SCORE.INTER>
-16.1021

>  <SCORE.INTER.CONST>
1

>  <SCORE.INTER.POLAR>
-0.824621

>  <SCORE.INTER.REPUL>
0

>  <SCORE.INTER.ROT>
7

>  <SCORE.INTER.VDW>
-25.6983

>  <SCORE.INTER.norm>
-0.596372

>  <SCORE.INTRA>
-45.092

>  <SCORE.INTRA.DIHEDRAL>
-93.4852

>  <SCORE.INTRA.DIHEDRAL.0>
107.708

>  <SCORE.INTRA.POLAR>
0

>  <SCORE.INTRA.POLAR.0>
0

>  <SCORE.INTRA.REPUL>
0

>  <SCORE.INTRA.REPUL.0>
0

>  <SCORE.INTRA.VDW>
1.65062

>  <SCORE.INTRA.VDW.0>
-5.40071

>  <SCORE.INTRA.norm>
-1.67007

>  <SCORE.RESTR>
0

>  <SCORE.RESTR.CAVITY>
0

>  <SCORE.RESTR.norm>
0

>  <SCORE.SYSTEM>
-7.01943

>  <SCORE.SYSTEM.CONST>
0

>  <SCORE.SYSTEM.DIHEDRAL>
7.18405

>  <SCORE.SYSTEM.POLAR>
-3.97217

>  <SCORE.SYSTEM.REPUL>
0.0454282

>  <SCORE.SYSTEM.VDW>
2.66679

>  <SCORE.SYSTEM.norm>
-0.259979

>  <SCORE.heavy>
27

>  <SCORE.norm>
-2.52642

$$$$
