F6143-0252
  rDOCK(R)          3D
libRbt.so/2013.1/901 2013/11/27
 22 25  0  0  0  0  0  0  0  0999 V2000
  -19.7861   25.3896  -10.4724 C   0  0  0  0  0  0
  -20.8922   26.2887  -11.0535 C   0  0  0  0  0  0
  -22.1935   25.8146  -10.5715 N   0  0  0  0  0  0
  -22.2748   25.7587   -9.1089 C   0  0  0  0  0  0
  -21.1303   24.8759   -8.5780 C   0  0  0  0  0  0
  -19.8465   25.3517   -9.0312 O   0  0  0  0  0  0
  -22.8488   24.8420  -11.3062 C   0  0  0  0  0  0
  -24.1551   25.0154  -11.5633 N   0  0  0  0  0  0
  -24.6742   24.0247  -12.2939 C   0  0  0  0  0  0
  -24.0423   22.8995  -12.7792 C   0  0  0  0  0  0
  -24.9573   22.1499  -13.4829 N   0  0  0  0  0  0
  -26.1302   22.7754  -13.4462 N   0  0  0  0  0  0
  -25.9564   23.9025  -12.7327 N   0  3  0  0  0  0
  -26.7359   24.5305  -12.5885 H   0  0  0  0  0  0
  -22.6741   22.7615  -12.4782 C   0  0  0  0  0  0
  -22.1314   23.7744  -11.7272 N   0  0  0  0  0  0
  -21.8508   21.6998  -12.8599 N   0  0  0  0  0  0
  -21.7537   20.5819  -11.9077 C   0  0  0  0  0  0
  -21.0804   19.3629  -12.5525 C   0  0  0  0  0  0
  -19.8190   19.7056  -13.1420 O   0  0  0  0  0  0
  -20.0236   20.6671  -14.1855 C   0  0  0  0  0  0
  -20.6446   21.9694  -13.6563 C   0  0  0  0  0  0
  1  2  1  0  0  0
  1  6  1  0  0  0
  2  3  1  0  0  0
  3  4  1  0  0  0
  3  7  1  0  0  0
  4  5  1  0  0  0
  5  6  1  0  0  0
  7  8  2  0  0  0
  7 16  1  0  0  0
  8  9  1  0  0  0
  9 10  2  0  0  0
  9 13  1  0  0  0
 10 11  1  0  0  0
 10 15  1  0  0  0
 11 12  1  0  0  0
 12 13  2  0  0  0
 13 14  1  0  0  0
 15 16  2  0  0  0
 15 17  1  0  0  0
 17 18  1  0  0  0
 17 22  1  0  0  0
 18 19  1  0  0  0
 19 20  1  0  0  0
 20 21  1  0  0  0
 21 22  1  0  0  0
M  END
>  <CHROM.0>
-179.22713974,-74.13372648,-167.15501298,64.32370063,168.20310926,-176.58045992
83.40856683,-160.46046567

>  <CHROM.1>
-133.58650632,-91.42398124,-22.27350350,23.29946995,-11.83570795,-1.50846079
0.29509111,-2.55031603

>  <Name>
F6143-0252

>  <RI>
3.49576e+07

>  <Rbt.Current_Directory>
/home/adria/Escritorio/rDock_CMTR_LC/2pxcA_model/inputs_sah

>  <Rbt.Executable>
rbdock ($Id: //depot/dev/client3/rdock/2013.1/src/exe/rbdock.cxx#4 $)

>  <Rbt.Library>
libRbt.so (2013.1, Build901 2013/11/27)

>  <Rbt.Parameter_File>
/home/adria/Escritorio/rDock_2013.1_src/data/scripts/dock.prm

>  <Rbt.Receptor>
sah_rdock.prm

>  <SCORE>
-15.6845

>  <SCORE.INTER>
-10.9424

>  <SCORE.INTER.CONST>
1

>  <SCORE.INTER.POLAR>
-1.74484

>  <SCORE.INTER.REPUL>
0.0619011

>  <SCORE.INTER.ROT>
2

>  <SCORE.INTER.VDW>
-12.7194

>  <SCORE.INTER.norm>
-0.521065

>  <SCORE.INTRA>
-2.6214

>  <SCORE.INTRA.DIHEDRAL>
-0.00699827

>  <SCORE.INTRA.DIHEDRAL.0>
0.969261

>  <SCORE.INTRA.POLAR>
0

>  <SCORE.INTRA.POLAR.0>
0

>  <SCORE.INTRA.REPUL>
0

>  <SCORE.INTRA.REPUL.0>
0

>  <SCORE.INTRA.VDW>
-2.6179

>  <SCORE.INTRA.VDW.0>
1.01713

>  <SCORE.INTRA.norm>
-0.124829

>  <SCORE.RESTR>
0

>  <SCORE.RESTR.CAVITY>
0

>  <SCORE.RESTR.norm>
0

>  <SCORE.SYSTEM>
-2.12071

>  <SCORE.SYSTEM.CONST>
0

>  <SCORE.SYSTEM.DIHEDRAL>
3.85076

>  <SCORE.SYSTEM.POLAR>
-3.87499

>  <SCORE.SYSTEM.REPUL>
0.040497

>  <SCORE.SYSTEM.VDW>
8.9264

>  <SCORE.SYSTEM.norm>
-0.100986

>  <SCORE.heavy>
21

>  <SCORE.norm>
-0.74688

$$$$
F6143-0252
  rDOCK(R)          3D
libRbt.so/2013.1/901 2013/11/27
 22 25  0  0  0  0  0  0  0  0999 V2000
  -20.4351   23.7383  -11.0177 C   0  0  0  0  0  0
  -20.7225   23.9813  -12.5104 C   0  0  0  0  0  0
  -21.9435   24.7839  -12.6357 N   0  0  0  0  0  0
  -21.8725   26.0500  -11.9003 C   0  0  0  0  0  0
  -21.5517   25.7533  -10.4238 C   0  0  0  0  0  0
  -20.3392   24.9832  -10.2943 O   0  0  0  0  0  0
  -23.1578   24.1229  -12.6952 C   0  0  0  0  0  0
  -23.7617   24.0143  -13.8895 N   0  0  0  0  0  0
  -24.9145   23.3420  -13.8268 C   0  0  0  0  0  0
  -25.5190   22.7843  -12.7203 C   0  0  0  0  0  0
  -26.6927   22.1840  -13.1157 N   0  0  0  0  0  0
  -26.8308   22.3544  -14.4273 N   0  0  0  0  0  0
  -25.7598   23.0489  -14.8519 N   0  3  0  0  0  0
  -25.6691   23.2821  -15.8318 H   0  0  0  0  0  0
  -24.8486   22.9297  -11.4910 C   0  0  0  0  0  0
  -23.6630   23.6196  -11.5450 N   0  0  0  0  0  0
  -25.2872   22.4536  -10.2534 N   0  0  0  0  0  0
  -25.5228   23.4706   -9.2159 C   0  0  0  0  0  0
  -26.2786   22.8759   -8.0200 C   0  0  0  0  0  0
  -25.6288   21.7019   -7.5142 O   0  0  0  0  0  0
  -25.6028   20.6929   -8.5322 C   0  0  0  0  0  0
  -24.8177   21.1457   -9.7733 C   0  0  0  0  0  0
  1  2  1  0  0  0
  1  6  1  0  0  0
  2  3  1  0  0  0
  3  4  1  0  0  0
  3  7  1  0  0  0
  4  5  1  0  0  0
  5  6  1  0  0  0
  7  8  2  0  0  0
  7 16  1  0  0  0
  8  9  1  0  0  0
  9 10  2  0  0  0
  9 13  1  0  0  0
 10 11  1  0  0  0
 10 15  1  0  0  0
 11 12  1  0  0  0
 12 13  2  0  0  0
 13 14  1  0  0  0
 15 16  2  0  0  0
 15 17  1  0  0  0
 17 18  1  0  0  0
 17 22  1  0  0  0
 18 19  1  0  0  0
 19 20  1  0  0  0
 20 21  1  0  0  0
 21 22  1  0  0  0
M  END
>  <CHROM.0>
179.98331274,-74.27055999,-128.85446919,-60.75932535,-31.38240640,-178.03096276
-156.63356023,-162.71874182

>  <CHROM.1>
-103.64076931,-118.99676844,-24.03011400,23.33589056,-11.40562770,-0.43688647
0.49430677,1.75160348

>  <Name>
F6143-0252

>  <RI>
3.49576e+07

>  <Rbt.Current_Directory>
/home/adria/Escritorio/rDock_CMTR_LC/2pxcA_model/inputs_sah

>  <Rbt.Executable>
rbdock ($Id: //depot/dev/client3/rdock/2013.1/src/exe/rbdock.cxx#4 $)

>  <Rbt.Library>
libRbt.so (2013.1, Build901 2013/11/27)

>  <Rbt.Parameter_File>
/home/adria/Escritorio/rDock_2013.1_src/data/scripts/dock.prm

>  <Rbt.Receptor>
sah_rdock.prm

>  <SCORE>
-20.8522

>  <SCORE.INTER>
-11.2127

>  <SCORE.INTER.CONST>
1

>  <SCORE.INTER.POLAR>
-0.903567

>  <SCORE.INTER.REPUL>
0

>  <SCORE.INTER.ROT>
2

>  <SCORE.INTER.VDW>
-15.5405

>  <SCORE.INTER.norm>
-0.533936

>  <SCORE.INTRA>
-2.87386

>  <SCORE.INTRA.DIHEDRAL>
-0.0127572

>  <SCORE.INTRA.DIHEDRAL.0>
0.969261

>  <SCORE.INTRA.POLAR>
0

>  <SCORE.INTRA.POLAR.0>
0

>  <SCORE.INTRA.REPUL>
0

>  <SCORE.INTRA.REPUL.0>
0

>  <SCORE.INTRA.VDW>
-2.86748

>  <SCORE.INTRA.VDW.0>
1.01713

>  <SCORE.INTRA.norm>
-0.13685

>  <SCORE.RESTR>
0.0251104

>  <SCORE.RESTR.CAVITY>
0.0251104

>  <SCORE.RESTR.norm>
0.00119574

>  <SCORE.SYSTEM>
-6.7908

>  <SCORE.SYSTEM.CONST>
0

>  <SCORE.SYSTEM.DIHEDRAL>
9.33214

>  <SCORE.SYSTEM.POLAR>
-4.59081

>  <SCORE.SYSTEM.REPUL>
0.0407251

>  <SCORE.SYSTEM.VDW>
3.94825

>  <SCORE.SYSTEM.norm>
-0.323371

>  <SCORE.heavy>
21

>  <SCORE.norm>
-0.992962

$$$$
F6143-0252
  rDOCK(R)          3D
libRbt.so/2013.1/901 2013/11/27
 22 25  0  0  0  0  0  0  0  0999 V2000
  -25.2939   23.1492   -7.7549 C   0  0  0  0  0  0
  -26.2239   23.5387   -8.9181 C   0  0  0  0  0  0
  -26.0358   22.5867  -10.0175 N   0  0  0  0  0  0
  -26.2547   21.1952   -9.6117 C   0  0  0  0  0  0
  -25.3261   20.8676   -8.4280 C   0  0  0  0  0  0
  -25.5235   21.7879   -7.3352 O   0  0  0  0  0  0
  -25.0517   22.8539  -10.9532 C   0  0  0  0  0  0
  -25.0294   24.0715  -11.5185 N   0  0  0  0  0  0
  -24.0270   24.2190  -12.3893 C   0  0  0  0  0  0
  -23.0689   23.2969  -12.7531 C   0  0  0  0  0  0
  -22.2301   23.8754  -13.6784 N   0  0  0  0  0  0
  -22.6404   25.1214  -13.8964 N   0  0  0  0  0  0
  -23.7191   25.3254  -13.1190 N   0  3  0  0  0  0
  -24.1853   26.2228  -13.1328 H   0  0  0  0  0  0
  -23.1385   22.0336  -12.1360 C   0  0  0  0  0  0
  -24.1656   21.8719  -11.2397 N   0  0  0  0  0  0
  -22.2788   20.9570  -12.3662 N   0  0  0  0  0  0
  -21.9086   20.1610  -11.1849 C   0  0  0  0  0  0
  -21.2219   18.8509  -11.5939 C   0  0  0  0  0  0
  -20.1174   19.0861  -12.4776 O   0  0  0  0  0  0
  -20.5912   19.7003  -13.6832 C   0  0  0  0  0  0
  -21.2543   21.0606  -13.4156 C   0  0  0  0  0  0
  1  2  1  0  0  0
  1  6  1  0  0  0
  2  3  1  0  0  0
  3  4  1  0  0  0
  3  7  1  0  0  0
  4  5  1  0  0  0
  5  6  1  0  0  0
  7  8  2  0  0  0
  7 16  1  0  0  0
  8  9  1  0  0  0
  9 10  2  0  0  0
  9 13  1  0  0  0
 10 11  1  0  0  0
 10 15  1  0  0  0
 11 12  1  0  0  0
 12 13  2  0  0  0
 13 14  1  0  0  0
 15 16  2  0  0  0
 15 17  1  0  0  0
 17 18  1  0  0  0
 17 22  1  0  0  0
 18 19  1  0  0  0
 19 20  1  0  0  0
 20 21  1  0  0  0
 21 22  1  0  0  0
M  END
>  <CHROM.0>
-60.97948657,65.89974227,108.25549550,61.38830540,168.19426990,58.57996481
-36.80025772,-165.51249854

>  <CHROM.1>
-50.52927562,141.22826481,-23.56123402,22.13613119,-11.32237410,-2.98982606
0.76836109,-0.63633819

>  <Name>
F6143-0252

>  <RI>
3.49576e+07

>  <Rbt.Current_Directory>
/home/adria/Escritorio/rDock_CMTR_LC/2pxcA_model/inputs_sah

>  <Rbt.Executable>
rbdock ($Id: //depot/dev/client3/rdock/2013.1/src/exe/rbdock.cxx#4 $)

>  <Rbt.Library>
libRbt.so (2013.1, Build901 2013/11/27)

>  <Rbt.Parameter_File>
/home/adria/Escritorio/rDock_2013.1_src/data/scripts/dock.prm

>  <Rbt.Receptor>
sah_rdock.prm

>  <SCORE>
-14.6806

>  <SCORE.INTER>
-11.7197

>  <SCORE.INTER.CONST>
1

>  <SCORE.INTER.POLAR>
-1.7356

>  <SCORE.INTER.REPUL>
0.0233403

>  <SCORE.INTER.ROT>
2

>  <SCORE.INTER.VDW>
-13.3354

>  <SCORE.INTER.norm>
-0.558083

>  <SCORE.INTRA>
-0.855307

>  <SCORE.INTRA.DIHEDRAL>
-0.00634533

>  <SCORE.INTRA.DIHEDRAL.0>
0.969261

>  <SCORE.INTRA.POLAR>
0

>  <SCORE.INTRA.POLAR.0>
0

>  <SCORE.INTRA.REPUL>
0

>  <SCORE.INTRA.REPUL.0>
0

>  <SCORE.INTRA.VDW>
-0.852134

>  <SCORE.INTRA.VDW.0>
1.01713

>  <SCORE.INTRA.norm>
-0.0407289

>  <SCORE.RESTR>
0

>  <SCORE.RESTR.CAVITY>
0

>  <SCORE.RESTR.norm>
0

>  <SCORE.SYSTEM>
-2.10558

>  <SCORE.SYSTEM.CONST>
0

>  <SCORE.SYSTEM.DIHEDRAL>
5.59897

>  <SCORE.SYSTEM.POLAR>
-4.16728

>  <SCORE.SYSTEM.VDW>
9.26369

>  <SCORE.SYSTEM.norm>
-0.100266

>  <SCORE.heavy>
21

>  <SCORE.norm>
-0.699078

$$$$
F6143-0252
  rDOCK(R)          3D
libRbt.so/2013.1/901 2013/11/27
 22 25  0  0  0  0  0  0  0  0999 V2000
  -19.9530   25.0499  -10.3797 C   0  0  0  0  0  0
  -20.8565   26.1045  -11.0438 C   0  0  0  0  0  0
  -22.2339   25.9126  -10.5783 N   0  0  0  0  0  0
  -22.3549   25.9598   -9.1181 C   0  0  0  0  0  0
  -21.4096   24.9110   -8.5039 C   0  0  0  0  0  0
  -20.0497   25.1096   -8.9413 O   0  0  0  0  0  0
  -23.0458   25.0383  -11.2795 C   0  0  0  0  0  0
  -23.2919   25.3021  -12.5728 N   0  0  0  0  0  0
  -24.0700   24.3817  -13.1492 C   0  0  0  0  0  0
  -24.6223   23.2532  -12.5815 C   0  0  0  0  0  0
  -25.3514   22.5894  -13.5418 N   0  0  0  0  0  0
  -25.2667   23.2715  -14.6801 N   0  0  0  0  0  0
  -24.4946   24.3469  -14.4415 N   0  3  0  0  0  0
  -24.2998   25.0006  -15.1881 H   0  0  0  0  0  0
  -24.3386   23.0240  -11.2219 C   0  0  0  0  0  0
  -23.5401   23.9647  -10.6204 N   0  0  0  0  0  0
  -24.8026   21.9537  -10.4538 N   0  0  0  0  0  0
  -26.0167   22.2051   -9.6608 C   0  0  0  0  0  0
  -26.5968   20.8965   -9.1075 C   0  0  0  0  0  0
  -25.6095   20.1406   -8.3932 O   0  0  0  0  0  0
  -24.5461   19.7793   -9.2841 C   0  0  0  0  0  0
  -23.8378   21.0122   -9.8669 C   0  0  0  0  0  0
  1  2  1  0  0  0
  1  6  1  0  0  0
  2  3  1  0  0  0
  3  4  1  0  0  0
  3  7  1  0  0  0
  4  5  1  0  0  0
  5  6  1  0  0  0
  7  8  2  0  0  0
  7 16  1  0  0  0
  8  9  1  0  0  0
  9 10  2  0  0  0
  9 13  1  0  0  0
 10 11  1  0  0  0
 10 15  1  0  0  0
 11 12  1  0  0  0
 12 13  2  0  0  0
 13 14  1  0  0  0
 15 16  2  0  0  0
 15 17  1  0  0  0
 17 18  1  0  0  0
 17 22  1  0  0  0
 18 19  1  0  0  0
 19 20  1  0  0  0
 20 21  1  0  0  0
 21 22  1  0  0  0
M  END
>  <CHROM.0>
-162.51328845,-75.89340097,111.52486037,65.02202091,-30.10485668,-58.86189529
-157.22700138,-160.71352831

>  <CHROM.1>
-60.53314908,-95.33666562,-23.61326816,23.51541886,-10.87684586,-0.36582982
0.73585233,2.07282235

>  <Name>
F6143-0252

>  <RI>
3.49576e+07

>  <Rbt.Current_Directory>
/home/adria/Escritorio/rDock_CMTR_LC/2pxcA_model/inputs_sah

>  <Rbt.Executable>
rbdock ($Id: //depot/dev/client3/rdock/2013.1/src/exe/rbdock.cxx#4 $)

>  <Rbt.Library>
libRbt.so (2013.1, Build901 2013/11/27)

>  <Rbt.Parameter_File>
/home/adria/Escritorio/rDock_2013.1_src/data/scripts/dock.prm

>  <Rbt.Receptor>
sah_rdock.prm

>  <SCORE>
-15.7881

>  <SCORE.INTER>
-7.09644

>  <SCORE.INTER.CONST>
1

>  <SCORE.INTER.POLAR>
-0.939488

>  <SCORE.INTER.REPUL>
0.374695

>  <SCORE.INTER.ROT>
2

>  <SCORE.INTER.VDW>
-13.1757

>  <SCORE.INTER.norm>
-0.337926

>  <SCORE.INTRA>
-2.10663

>  <SCORE.INTRA.DIHEDRAL>
-0.00398722

>  <SCORE.INTRA.DIHEDRAL.0>
0.969261

>  <SCORE.INTRA.POLAR>
0

>  <SCORE.INTRA.POLAR.0>
0

>  <SCORE.INTRA.REPUL>
0

>  <SCORE.INTRA.REPUL.0>
0

>  <SCORE.INTRA.VDW>
-2.10464

>  <SCORE.INTRA.VDW.0>
1.01713

>  <SCORE.INTRA.norm>
-0.100316

>  <SCORE.RESTR>
0

>  <SCORE.RESTR.CAVITY>
0

>  <SCORE.RESTR.norm>
0

>  <SCORE.SYSTEM>
-6.58505

>  <SCORE.SYSTEM.CONST>
0

>  <SCORE.SYSTEM.DIHEDRAL>
11.3744

>  <SCORE.SYSTEM.POLAR>
-4.72068

>  <SCORE.SYSTEM.REPUL>
0.043288

>  <SCORE.SYSTEM.VDW>
3.56164

>  <SCORE.SYSTEM.norm>
-0.313574

>  <SCORE.heavy>
21

>  <SCORE.norm>
-0.751815

$$$$
F6143-0252
  rDOCK(R)          3D
libRbt.so/2013.1/901 2013/11/27
 22 25  0  0  0  0  0  0  0  0999 V2000
  -20.0273   24.8211  -10.2329 C   0  0  0  0  0  0
  -20.7838   25.9374  -10.9753 C   0  0  0  0  0  0
  -22.2016   25.8795  -10.6050 N   0  0  0  0  0  0
  -22.4179   25.9693   -9.1579 C   0  0  0  0  0  0
  -21.6159   24.8540   -8.4623 C   0  0  0  0  0  0
  -20.2168   24.9207   -8.8060 O   0  0  0  0  0  0
  -23.0393   25.0661  -11.3479 C   0  0  0  0  0  0
  -23.2358   25.3719  -12.6404 N   0  0  0  0  0  0
  -24.0456   24.5077  -13.2588 C   0  0  0  0  0  0
  -24.6722   23.3979  -12.7329 C   0  0  0  0  0  0
  -25.4090   22.7960  -13.7274 N   0  0  0  0  0  0
  -25.2574   23.4982  -14.8464 N   0  0  0  0  0  0
  -24.4362   24.5250  -14.5621 N   0  3  0  0  0  0
  -24.1868   25.1841  -15.2875 H   0  0  0  0  0  0
  -24.4381   23.1232  -11.3723 C   0  0  0  0  0  0
  -23.6075   24.0059  -10.7278 N   0  0  0  0  0  0
  -24.9787   22.0621  -10.6424 N   0  0  0  0  0  0
  -24.8162   20.7230  -11.2309 C   0  0  0  0  0  0
  -25.1705   19.6266  -10.2174 C   0  0  0  0  0  0
  -26.4705   19.8326   -9.6482 O   0  0  0  0  0  0
  -26.4901   21.0772   -8.9371 C   0  0  0  0  0  0
  -26.2051   22.2730   -9.8593 C   0  0  0  0  0  0
  1  2  1  0  0  0
  1  6  1  0  0  0
  2  3  1  0  0  0
  3  4  1  0  0  0
  3  7  1  0  0  0
  4  5  1  0  0  0
  5  6  1  0  0  0
  7  8  2  0  0  0
  7 16  1  0  0  0
  8  9  1  0  0  0
  9 10  2  0  0  0
  9 13  1  0  0  0
 10 11  1  0  0  0
 10 15  1  0  0  0
 11 12  1  0  0  0
 12 13  2  0  0  0
 13 14  1  0  0  0
 15 16  2  0  0  0
 15 17  1  0  0  0
 17 18  1  0  0  0
 17 22  1  0  0  0
 18 19  1  0  0  0
 19 20  1  0  0  0
 20 21  1  0  0  0
 21 22  1  0  0  0
M  END
>  <CHROM.0>
-158.28064991,-70.88147678,-166.65562040,66.74961543,-29.81467563,-179.71602118
-156.31874592,-160.95740472

>  <CHROM.1>
-64.58277770,51.75274568,-23.77536336,23.51287889,-11.10147103,-0.20457652
0.75084437,2.03734449

>  <Name>
F6143-0252

>  <RI>
3.49576e+07

>  <Rbt.Current_Directory>
/home/adria/Escritorio/rDock_CMTR_LC/2pxcA_model/inputs_sah

>  <Rbt.Executable>
rbdock ($Id: //depot/dev/client3/rdock/2013.1/src/exe/rbdock.cxx#4 $)

>  <Rbt.Library>
libRbt.so (2013.1, Build901 2013/11/27)

>  <Rbt.Parameter_File>
/home/adria/Escritorio/rDock_2013.1_src/data/scripts/dock.prm

>  <Rbt.Receptor>
sah_rdock.prm

>  <SCORE>
-14.9097

>  <SCORE.INTER>
-6.57974

>  <SCORE.INTER.CONST>
1

>  <SCORE.INTER.POLAR>
-0.929543

>  <SCORE.INTER.REPUL>
0.298671

>  <SCORE.INTER.ROT>
2

>  <SCORE.INTER.VDW>
-12.3126

>  <SCORE.INTER.norm>
-0.313321

>  <SCORE.INTRA>
-2.0511

>  <SCORE.INTRA.DIHEDRAL>
-0.00109972

>  <SCORE.INTRA.DIHEDRAL.0>
0.969261

>  <SCORE.INTRA.POLAR>
0

>  <SCORE.INTRA.POLAR.0>
0

>  <SCORE.INTRA.REPUL>
0

>  <SCORE.INTRA.REPUL.0>
0

>  <SCORE.INTRA.VDW>
-2.05055

>  <SCORE.INTRA.VDW.0>
1.01713

>  <SCORE.INTRA.norm>
-0.0976715

>  <SCORE.RESTR>
0

>  <SCORE.RESTR.CAVITY>
0

>  <SCORE.RESTR.norm>
0

>  <SCORE.SYSTEM>
-6.27882

>  <SCORE.SYSTEM.CONST>
0

>  <SCORE.SYSTEM.DIHEDRAL>
8.66205

>  <SCORE.SYSTEM.POLAR>
-4.02451

>  <SCORE.SYSTEM.REPUL>
0.0345349

>  <SCORE.SYSTEM.VDW>
2.90083

>  <SCORE.SYSTEM.norm>
-0.298992

>  <SCORE.heavy>
21

>  <SCORE.norm>
-0.709984

$$$$
F6143-0252
  rDOCK(R)          3D
libRbt.so/2013.1/901 2013/11/27
 22 25  0  0  0  0  0  0  0  0999 V2000
  -22.3684   25.2401  -12.3216 C   0  0  0  0  0  0
  -23.6830   24.8601  -13.0265 C   0  0  0  0  0  0
  -24.2688   23.6993  -12.3484 N   0  0  0  0  0  0
  -24.4853   23.9240  -10.9161 C   0  0  0  0  0  0
  -23.1501   24.3317  -10.2665 C   0  0  0  0  0  0
  -22.5813   25.4870  -10.9160 O   0  0  0  0  0  0
  -23.8896   22.4362  -12.7680 C   0  0  0  0  0  0
  -24.8519   21.5249  -12.9824 N   0  0  0  0  0  0
  -24.3690   20.3518  -13.4016 C   0  0  0  0  0  0
  -23.0544   19.9976  -13.6183 C   0  0  0  0  0  0
  -23.0160   18.6912  -14.0498 N   0  0  0  0  0  0
  -24.2621   18.2300  -14.1050 N   0  0  0  0  0  0
  -25.0728   19.2308  -13.7167 N   0  3  0  0  0  0
  -26.0734   19.0854  -13.6924 H   0  0  0  0  0  0
  -22.0830   20.9868  -13.3744 C   0  0  0  0  0  0
  -22.5693   22.1957  -12.9427 N   0  0  0  0  0  0
  -20.7019   20.8369  -13.5190 N   0  0  0  0  0  0
  -20.2037   20.7339  -14.9001 C   0  0  0  0  0  0
  -18.6766   20.8773  -14.9493 C   0  0  0  0  0  0
  -18.0303   19.9636  -14.0527 O   0  0  0  0  0  0
  -18.4309   20.2501  -12.7063 C   0  0  0  0  0  0
  -19.9457   20.0842  -12.5075 C   0  0  0  0  0  0
  1  2  1  0  0  0
  1  6  1  0  0  0
  2  3  1  0  0  0
  3  4  1  0  0  0
  3  7  1  0  0  0
  4  5  1  0  0  0
  5  6  1  0  0  0
  7  8  2  0  0  0
  7 16  1  0  0  0
  8  9  1  0  0  0
  9 10  2  0  0  0
  9 13  1  0  0  0
 10 11  1  0  0  0
 10 15  1  0  0  0
 11 12  1  0  0  0
 12 13  2  0  0  0
 13 14  1  0  0  0
 15 16  2  0  0  0
 15 17  1  0  0  0
 17 18  1  0  0  0
 17 22  1  0  0  0
 18 19  1  0  0  0
 19 20  1  0  0  0
 20 21  1  0  0  0
 21 22  1  0  0  0
M  END
>  <CHROM.0>
-177.50951559,-74.83662525,-9.73855981,64.21829355,-30.71424416,-178.13299733
82.01405597,-162.41710580

>  <CHROM.1>
-132.68348635,70.94291383,-22.32354018,21.64123090,-13.00590617,-2.20524744
-0.08597119,-2.73049570

>  <Name>
F6143-0252

>  <RI>
3.49576e+07

>  <Rbt.Current_Directory>
/home/adria/Escritorio/rDock_CMTR_LC/2pxcA_model/inputs_sah

>  <Rbt.Executable>
rbdock ($Id: //depot/dev/client3/rdock/2013.1/src/exe/rbdock.cxx#4 $)

>  <Rbt.Library>
libRbt.so (2013.1, Build901 2013/11/27)

>  <Rbt.Parameter_File>
/home/adria/Escritorio/rDock_2013.1_src/data/scripts/dock.prm

>  <Rbt.Receptor>
sah_rdock.prm

>  <SCORE>
-17.5182

>  <SCORE.INTER>
-7.91246

>  <SCORE.INTER.CONST>
1

>  <SCORE.INTER.POLAR>
-0.87178

>  <SCORE.INTER.REPUL>
0.0644795

>  <SCORE.INTER.ROT>
2

>  <SCORE.INTER.VDW>
-12.6708

>  <SCORE.INTER.norm>
-0.376784

>  <SCORE.INTRA>
-2.66543

>  <SCORE.INTRA.DIHEDRAL>
-0.0108307

>  <SCORE.INTRA.DIHEDRAL.0>
0.969261

>  <SCORE.INTRA.POLAR>
0

>  <SCORE.INTRA.POLAR.0>
0

>  <SCORE.INTRA.REPUL>
0

>  <SCORE.INTRA.REPUL.0>
0

>  <SCORE.INTRA.VDW>
-2.66002

>  <SCORE.INTRA.VDW.0>
1.01713

>  <SCORE.INTRA.norm>
-0.126925

>  <SCORE.RESTR>
0

>  <SCORE.RESTR.CAVITY>
0

>  <SCORE.RESTR.norm>
0

>  <SCORE.SYSTEM>
-6.94027

>  <SCORE.SYSTEM.CONST>
0

>  <SCORE.SYSTEM.DIHEDRAL>
9.50305

>  <SCORE.SYSTEM.POLAR>
-4.56029

>  <SCORE.SYSTEM.REPUL>
0.0416491

>  <SCORE.SYSTEM.VDW>
3.60493

>  <SCORE.SYSTEM.norm>
-0.330489

>  <SCORE.heavy>
21

>  <SCORE.norm>
-0.834198

$$$$
F6143-0252
  rDOCK(R)          3D
libRbt.so/2013.1/901 2013/11/27
 22 25  0  0  0  0  0  0  0  0999 V2000
  -26.0189   24.1142  -12.1583 C   0  0  0  0  0  0
  -25.6066   25.5973  -12.1645 C   0  0  0  0  0  0
  -24.2277   25.7061  -12.6516 N   0  0  0  0  0  0
  -24.0399   25.1020  -13.9739 C   0  0  0  0  0  0
  -24.4963   23.6323  -13.9215 C   0  0  0  0  0  0
  -25.8596   23.5218  -13.4643 O   0  0  0  0  0  0
  -23.1990   25.6109  -11.7307 C   0  0  0  0  0  0
  -22.1172   26.3863  -11.9075 N   0  0  0  0  0  0
  -21.2012   26.2222  -10.9489 C   0  0  0  0  0  0
  -21.2468   25.3789   -9.8592 C   0  0  0  0  0  0
  -20.0895   25.5374   -9.1313 N   0  0  0  0  0  0
  -19.3338   26.4488   -9.7367 N   0  0  0  0  0  0
  -20.0053   26.8597  -10.8275 N   0  3  0  0  0  0
  -19.6004   27.5633  -11.4307 H   0  0  0  0  0  0
  -22.3998   24.5832   -9.7214 C   0  0  0  0  0  0
  -23.3469   24.7442  -10.7019 N   0  0  0  0  0  0
  -22.6447   23.6589   -8.7032 N   0  0  0  0  0  0
  -21.7413   23.7204   -7.5430 C   0  0  0  0  0  0
  -22.2813   22.8820   -6.3765 C   0  0  0  0  0  0
  -22.5779   21.5392   -6.7830 O   0  0  0  0  0  0
  -23.5996   21.5581   -7.7885 C   0  0  0  0  0  0
  -23.1581   22.3244   -9.0453 C   0  0  0  0  0  0
  1  2  1  0  0  0
  1  6  1  0  0  0
  2  3  1  0  0  0
  3  4  1  0  0  0
  3  7  1  0  0  0
  4  5  1  0  0  0
  5  6  1  0  0  0
  7  8  2  0  0  0
  7 16  1  0  0  0
  8  9  1  0  0  0
  9 10  2  0  0  0
  9 13  1  0  0  0
 10 11  1  0  0  0
 10 15  1  0  0  0
 11 12  1  0  0  0
 12 13  2  0  0  0
 13 14  1  0  0  0
 15 16  2  0  0  0
 15 17  1  0  0  0
 17 18  1  0  0  0
 17 22  1  0  0  0
 18 19  1  0  0  0
 19 20  1  0  0  0
 20 21  1  0  0  0
 21 22  1  0  0  0
M  END
>  <CHROM.0>
147.53409288,-73.52928761,-130.31830326,-62.29834972,-29.33523392,-58.90830004
-36.69873622,-175.34624096

>  <CHROM.1>
-143.08294821,12.74958412,-22.84935448,24.48737586,-10.43077412,2.16544812
-0.59311778,-0.94276362

>  <Name>
F6143-0252

>  <RI>
3.49576e+07

>  <Rbt.Current_Directory>
/home/adria/Escritorio/rDock_CMTR_LC/2pxcA_model/inputs_sah

>  <Rbt.Executable>
rbdock ($Id: //depot/dev/client3/rdock/2013.1/src/exe/rbdock.cxx#4 $)

>  <Rbt.Library>
libRbt.so (2013.1, Build901 2013/11/27)

>  <Rbt.Parameter_File>
/home/adria/Escritorio/rDock_2013.1_src/data/scripts/dock.prm

>  <Rbt.Receptor>
sah_rdock.prm

>  <SCORE>
33.6253

>  <SCORE.INTER>
39.233

>  <SCORE.INTER.CONST>
1

>  <SCORE.INTER.POLAR>
-1.96999

>  <SCORE.INTER.REPUL>
0.920079

>  <SCORE.INTER.ROT>
2

>  <SCORE.INTER.VDW>
33.9306

>  <SCORE.INTER.norm>
1.86824

>  <SCORE.INTRA>
-1.35775

>  <SCORE.INTRA.DIHEDRAL>
-0.0121312

>  <SCORE.INTRA.DIHEDRAL.0>
0.969261

>  <SCORE.INTRA.POLAR>
0

>  <SCORE.INTRA.POLAR.0>
0

>  <SCORE.INTRA.REPUL>
0

>  <SCORE.INTRA.REPUL.0>
0

>  <SCORE.INTRA.VDW>
-1.35169

>  <SCORE.INTRA.VDW.0>
1.01713

>  <SCORE.INTRA.norm>
-0.064655

>  <SCORE.RESTR>
0.0229097

>  <SCORE.RESTR.CAVITY>
0.0229097

>  <SCORE.RESTR.norm>
0.00109094

>  <SCORE.SYSTEM>
-4.27292

>  <SCORE.SYSTEM.CONST>
0

>  <SCORE.SYSTEM.DIHEDRAL>
13.2402

>  <SCORE.SYSTEM.POLAR>
-4.40271

>  <SCORE.SYSTEM.REPUL>
0.039467

>  <SCORE.SYSTEM.VDW>
3.87885

>  <SCORE.SYSTEM.norm>
-0.203473

>  <SCORE.heavy>
21

>  <SCORE.norm>
1.6012

$$$$
F6143-0252
  rDOCK(R)          3D
libRbt.so/2013.1/901 2013/11/27
 22 25  0  0  0  0  0  0  0  0999 V2000
  -20.0316   19.6047  -13.8311 C   0  0  0  0  0  0
  -19.9111   18.9039  -12.4659 C   0  0  0  0  0  0
  -21.2565   18.6579  -11.9366 N   0  0  0  0  0  0
  -22.0980   17.8834  -12.8535 C   0  0  0  0  0  0
  -22.1588   18.6092  -14.2101 C   0  0  0  0  0  0
  -20.8385   18.8334  -14.7454 O   0  0  0  0  0  0
  -21.8503   19.6477  -11.1730 C   0  0  0  0  0  0
  -22.2075   19.3474   -9.9141 N   0  0  0  0  0  0
  -22.7520   20.3835   -9.2700 C   0  0  0  0  0  0
  -22.9789   21.6589   -9.7418 C   0  0  0  0  0  0
  -23.5562   22.4032   -8.7382 N   0  0  0  0  0  0
  -23.6925   21.6287   -7.6659 N   0  0  0  0  0  0
  -23.2067   20.4163   -7.9880 N   0  3  0  0  0  0
  -23.2133   19.6742   -7.3010 H   0  0  0  0  0  0
  -22.5913   21.9219  -11.0693 C   0  0  0  0  0  0
  -22.0312   20.8632  -11.7398 N   0  0  0  0  0  0
  -22.7392   23.1357  -11.7444 N   0  0  0  0  0  0
  -23.6154   23.1156  -12.9267 C   0  0  0  0  0  0
  -23.9401   24.5392  -13.3989 C   0  0  0  0  0  0
  -22.7504   25.3145  -13.5984 O   0  0  0  0  0  0
  -22.0465   25.4397  -12.3558 C   0  0  0  0  0  0
  -21.6096   24.0751  -11.8002 C   0  0  0  0  0  0
  1  2  1  0  0  0
  1  6  1  0  0  0
  2  3  1  0  0  0
  3  4  1  0  0  0
  3  7  1  0  0  0
  4  5  1  0  0  0
  5  6  1  0  0  0
  7  8  2  0  0  0
  7 16  1  0  0  0
  8  9  1  0  0  0
  9 10  2  0  0  0
  9 13  1  0  0  0
 10 11  1  0  0  0
 10 15  1  0  0  0
 11 12  1  0  0  0
 12 13  2  0  0  0
 13 14  1  0  0  0
 15 16  2  0  0  0
 15 17  1  0  0  0
 17 18  1  0  0  0
 17 22  1  0  0  0
 18 19  1  0  0  0
 19 20  1  0  0  0
 20 21  1  0  0  0
 21 22  1  0  0  0
M  END
>  <CHROM.0>
-61.50085450,-75.66403316,-170.31757809,-63.74932992,-30.41076606,-177.14647330
-36.17783402,-162.21857406

>  <CHROM.1>
-120.73399482,-117.23726798,-22.26832748,21.27187647,-11.63552683,-0.57062040
1.19087261,-0.72359431

>  <Name>
F6143-0252

>  <RI>
3.49576e+07

>  <Rbt.Current_Directory>
/home/adria/Escritorio/rDock_CMTR_LC/2pxcA_model/inputs_sah

>  <Rbt.Executable>
rbdock ($Id: //depot/dev/client3/rdock/2013.1/src/exe/rbdock.cxx#4 $)

>  <Rbt.Library>
libRbt.so (2013.1, Build901 2013/11/27)

>  <Rbt.Parameter_File>
/home/adria/Escritorio/rDock_2013.1_src/data/scripts/dock.prm

>  <Rbt.Receptor>
sah_rdock.prm

>  <SCORE>
-25.3684

>  <SCORE.INTER>
-15.3047

>  <SCORE.INTER.CONST>
1

>  <SCORE.INTER.POLAR>
-2.18663

>  <SCORE.INTER.REPUL>
0.168002

>  <SCORE.INTER.ROT>
2

>  <SCORE.INTER.VDW>
-16.1102

>  <SCORE.INTER.norm>
-0.728795

>  <SCORE.INTRA>
-2.83509

>  <SCORE.INTRA.DIHEDRAL>
-0.0144885

>  <SCORE.INTRA.DIHEDRAL.0>
0.969261

>  <SCORE.INTRA.POLAR>
0

>  <SCORE.INTRA.POLAR.0>
0

>  <SCORE.INTRA.REPUL>
0

>  <SCORE.INTRA.REPUL.0>
0

>  <SCORE.INTRA.VDW>
-2.82784

>  <SCORE.INTRA.VDW.0>
1.01713

>  <SCORE.INTRA.norm>
-0.135004

>  <SCORE.RESTR>
0

>  <SCORE.RESTR.CAVITY>
0

>  <SCORE.RESTR.norm>
0

>  <SCORE.SYSTEM>
-7.22862

>  <SCORE.SYSTEM.CONST>
0

>  <SCORE.SYSTEM.DIHEDRAL>
6.66944

>  <SCORE.SYSTEM.POLAR>
-3.97729

>  <SCORE.SYSTEM.REPUL>
0.0429419

>  <SCORE.SYSTEM.VDW>
2.74473

>  <SCORE.SYSTEM.norm>
-0.34422

>  <SCORE.heavy>
21

>  <SCORE.norm>
-1.20802

$$$$
F6143-0252
  rDOCK(R)          3D
libRbt.so/2013.1/901 2013/11/27
 22 25  0  0  0  0  0  0  0  0999 V2000
  -18.1639   25.3731  -10.4452 C   0  0  0  0  0  0
  -19.0480   26.6103  -10.6843 C   0  0  0  0  0  0
  -20.4351   26.2773  -10.3440 N   0  0  0  0  0  0
  -20.5833   25.7815   -8.9725 C   0  0  0  0  0  0
  -19.6564   24.5676   -8.7768 C   0  0  0  0  0  0
  -18.2873   24.8966   -9.0888 O   0  0  0  0  0  0
  -21.2392   25.7359  -11.3316 C   0  0  0  0  0  0
  -22.2897   26.4553  -11.7578 N   0  0  0  0  0  0
  -22.9795   25.8411  -12.7231 C   0  0  0  0  0  0
  -22.7407   24.6079  -13.2913 C   0  0  0  0  0  0
  -23.6989   24.3725  -14.2509 N   0  0  0  0  0  0
  -24.5189   25.4185  -14.2915 N   0  0  0  0  0  0
  -24.0830   26.3000  -13.3737 N   0  3  0  0  0  0
  -24.5721   27.1761  -13.2471 H   0  0  0  0  0  0
  -21.6305   23.8910  -12.8065 C   0  0  0  0  0  0
  -20.9154   24.5136  -11.8139 N   0  0  0  0  0  0
  -21.2177   22.6265  -13.2328 N   0  0  0  0  0  0
  -21.4869   21.5128  -12.3091 C   0  0  0  0  0  0
  -21.2723   20.1585  -12.9981 C   0  0  0  0  0  0
  -19.9785   20.0758  -13.6109 O   0  0  0  0  0  0
  -19.8647   21.0810  -14.6267 C   0  0  0  0  0  0
  -20.0038   22.4997  -14.0525 C   0  0  0  0  0  0
  1  2  1  0  0  0
  1  6  1  0  0  0
  2  3  1  0  0  0
  3  4  1  0  0  0
  3  7  1  0  0  0
  4  5  1  0  0  0
  5  6  1  0  0  0
  7  8  2  0  0  0
  7 16  1  0  0  0
  8  9  1  0  0  0
  9 10  2  0  0  0
  9 13  1  0  0  0
 10 11  1  0  0  0
 10 15  1  0  0  0
 11 12  1  0  0  0
 12 13  2  0  0  0
 13 14  1  0  0  0
 15 16  2  0  0  0
 15 17  1  0  0  0
 17 18  1  0  0  0
 17 22  1  0  0  0
 18 19  1  0  0  0
 19 20  1  0  0  0
 20 21  1  0  0  0
 21 22  1  0  0  0
M  END
>  <CHROM.0>
-167.62413221,-69.72278971,-168.02522890,61.71123104,-31.21936420,67.97941370
-156.51083626,-160.04999216

>  <CHROM.1>
-114.46333563,-105.86824981,-21.10356254,24.18305933,-12.11421073,-1.18475793
0.63995435,-2.58408375

>  <Name>
F6143-0252

>  <RI>
3.49576e+07

>  <Rbt.Current_Directory>
/home/adria/Escritorio/rDock_CMTR_LC/2pxcA_model/inputs_sah

>  <Rbt.Executable>
rbdock ($Id: //depot/dev/client3/rdock/2013.1/src/exe/rbdock.cxx#4 $)

>  <Rbt.Library>
libRbt.so (2013.1, Build901 2013/11/27)

>  <Rbt.Parameter_File>
/home/adria/Escritorio/rDock_2013.1_src/data/scripts/dock.prm

>  <Rbt.Receptor>
sah_rdock.prm

>  <SCORE>
-11.8274

>  <SCORE.INTER>
-2.14505

>  <SCORE.INTER.CONST>
1

>  <SCORE.INTER.POLAR>
-2.13304

>  <SCORE.INTER.REPUL>
0.421133

>  <SCORE.INTER.ROT>
2

>  <SCORE.INTER.VDW>
-4.39839

>  <SCORE.INTER.norm>
-0.102145

>  <SCORE.INTRA>
-2.91328

>  <SCORE.INTRA.DIHEDRAL>
-0.00986804

>  <SCORE.INTRA.DIHEDRAL.0>
0.969261

>  <SCORE.INTRA.POLAR>
0

>  <SCORE.INTRA.POLAR.0>
0

>  <SCORE.INTRA.REPUL>
0

>  <SCORE.INTRA.REPUL.0>
0

>  <SCORE.INTRA.VDW>
-2.90834

>  <SCORE.INTRA.VDW.0>
1.01713

>  <SCORE.INTRA.norm>
-0.138727

>  <SCORE.RESTR>
0

>  <SCORE.RESTR.CAVITY>
0

>  <SCORE.RESTR.norm>
0

>  <SCORE.SYSTEM>
-6.76907

>  <SCORE.SYSTEM.CONST>
0

>  <SCORE.SYSTEM.DIHEDRAL>
6.82573

>  <SCORE.SYSTEM.POLAR>
-3.9565

>  <SCORE.SYSTEM.REPUL>
0.0321658

>  <SCORE.SYSTEM.VDW>
3.10935

>  <SCORE.SYSTEM.norm>
-0.322337

>  <SCORE.heavy>
21

>  <SCORE.norm>
-0.563209

$$$$
F6143-0252
  rDOCK(R)          3D
libRbt.so/2013.1/901 2013/11/27
 22 25  0  0  0  0  0  0  0  0999 V2000
  -20.9330   24.6973  -11.8944 C   0  0  0  0  0  0
  -22.3612   25.2508  -11.7413 C   0  0  0  0  0  0
  -22.7675   25.1378  -10.3367 N   0  0  0  0  0  0
  -21.8419   25.8082   -9.4188 C   0  0  0  0  0  0
  -20.4262   25.2424   -9.6349 C   0  0  0  0  0  0
  -20.0132   25.3718  -11.0106 O   0  0  0  0  0  0
  -23.3723   23.9638   -9.9229 C   0  0  0  0  0  0
  -24.2467   24.0264   -8.9060 N   0  0  0  0  0  0
  -24.7791   22.8378   -8.6081 C   0  0  0  0  0  0
  -24.5312   21.6180   -9.2008 C   0  0  0  0  0  0
  -25.3014   20.6618   -8.5789 N   0  0  0  0  0  0
  -26.0138   21.2521   -7.6237 N   0  0  0  0  0  0
  -25.6992   22.5598   -7.6449 N   0  3  0  0  0  0
  -26.1406   23.1930   -6.9915 H   0  0  0  0  0  0
  -23.6029   21.6045  -10.2589 C   0  0  0  0  0  0
  -23.0498   22.8212  -10.5724 N   0  0  0  0  0  0
  -23.2005   20.4819  -10.9861 N   0  0  0  0  0  0
  -21.8884   19.9177  -10.6311 C   0  0  0  0  0  0
  -21.6895   18.5362  -11.2689 C   0  0  0  0  0  0
  -21.9191   18.5689  -12.6840 O   0  0  0  0  0  0
  -23.2764   18.9528  -12.9401 C   0  0  0  0  0  0
  -23.5912   20.3558  -12.3978 C   0  0  0  0  0  0
  1  2  1  0  0  0
  1  6  1  0  0  0
  2  3  1  0  0  0
  3  4  1  0  0  0
  3  7  1  0  0  0
  4  5  1  0  0  0
  5  6  1  0  0  0
  7  8  2  0  0  0
  7 16  1  0  0  0
  8  9  1  0  0  0
  9 10  2  0  0  0
  9 13  1  0  0  0
 10 11  1  0  0  0
 10 15  1  0  0  0
 11 12  1  0  0  0
 12 13  2  0  0  0
 13 14  1  0  0  0
 15 16  2  0  0  0
 15 17  1  0  0  0
 17 18  1  0  0  0
 17 22  1  0  0  0
 18 19  1  0  0  0
 19 20  1  0  0  0
 20 21  1  0  0  0
 21 22  1  0  0  0
M  END
>  <CHROM.0>
-177.16073041,66.71336405,78.13632363,63.80423972,-30.50539894,-178.56732682
-156.35399332,-160.87730447

>  <CHROM.1>
-150.95745606,-102.04064516,-23.02547135,22.35868268,-10.33037397,-1.24455518
-0.70541034,-2.76076943

>  <Name>
F6143-0252

>  <RI>
3.49576e+07

>  <Rbt.Current_Directory>
/home/adria/Escritorio/rDock_CMTR_LC/2pxcA_model/inputs_sah

>  <Rbt.Executable>
rbdock ($Id: //depot/dev/client3/rdock/2013.1/src/exe/rbdock.cxx#4 $)

>  <Rbt.Library>
libRbt.so (2013.1, Build901 2013/11/27)

>  <Rbt.Parameter_File>
/home/adria/Escritorio/rDock_2013.1_src/data/scripts/dock.prm

>  <Rbt.Receptor>
sah_rdock.prm

>  <SCORE>
-21.6146

>  <SCORE.INTER>
-12.6581

>  <SCORE.INTER.CONST>
1

>  <SCORE.INTER.POLAR>
-1.39001

>  <SCORE.INTER.REPUL>
0.0167616

>  <SCORE.INTER.ROT>
2

>  <SCORE.INTER.VDW>
-15.4159

>  <SCORE.INTER.norm>
-0.602766

>  <SCORE.INTRA>
-2.25132

>  <SCORE.INTRA.DIHEDRAL>
-0.00982532

>  <SCORE.INTRA.DIHEDRAL.0>
0.969261

>  <SCORE.INTRA.POLAR>
0

>  <SCORE.INTRA.POLAR.0>
0

>  <SCORE.INTRA.REPUL>
0

>  <SCORE.INTRA.REPUL.0>
0

>  <SCORE.INTRA.VDW>
-2.24641

>  <SCORE.INTRA.VDW.0>
1.01713

>  <SCORE.INTRA.norm>
-0.107206

>  <SCORE.RESTR>
0.284093

>  <SCORE.RESTR.CAVITY>
0.284093

>  <SCORE.RESTR.norm>
0.0135282

>  <SCORE.SYSTEM>
-6.98927

>  <SCORE.SYSTEM.CONST>
0

>  <SCORE.SYSTEM.DIHEDRAL>
6.32069

>  <SCORE.SYSTEM.POLAR>
-3.80406

>  <SCORE.SYSTEM.VDW>
2.7842

>  <SCORE.SYSTEM.norm>
-0.332822

>  <SCORE.heavy>
21

>  <SCORE.norm>
-1.02927

$$$$
F6143-0252
  rDOCK(R)          3D
libRbt.so/2013.1/901 2013/11/27
 22 25  0  0  0  0  0  0  0  0999 V2000
  -20.5221   23.8516  -10.9767 C   0  0  0  0  0  0
  -20.8046   24.0551  -12.4761 C   0  0  0  0  0  0
  -22.0527   24.8100  -12.6274 N   0  0  0  0  0  0
  -22.0344   26.0918  -11.9164 C   0  0  0  0  0  0
  -21.7165   25.8356  -10.4318 C   0  0  0  0  0  0
  -20.4781   25.1128  -10.2770 O   0  0  0  0  0  0
  -23.2417   24.1040  -12.6842 C   0  0  0  0  0  0
  -23.8528   23.9879  -13.8739 N   0  0  0  0  0  0
  -24.9786   23.2715  -13.8092 C   0  0  0  0  0  0
  -25.5505   22.6770  -12.7045 C   0  0  0  0  0  0
  -26.7045   22.0377  -13.0966 N   0  0  0  0  0  0
  -26.8620   22.2195  -14.4045 N   0  0  0  0  0  0
  -25.8224   22.9596  -14.8300 N   0  3  0  0  0  0
  -25.7504   23.2086  -15.8076 H   0  0  0  0  0  0
  -24.8738   22.8321  -11.4799 C   0  0  0  0  0  0
  -23.7159   23.5672  -11.5360 N   0  0  0  0  0  0
  -25.2818   22.3238  -10.2445 N   0  0  0  0  0  0
  -25.6533   23.3195   -9.2263 C   0  0  0  0  0  0
  -26.3619   22.6569   -8.0373 C   0  0  0  0  0  0
  -25.5938   21.5706   -7.5022 O   0  0  0  0  0  0
  -25.4318   20.5591   -8.5051 C   0  0  0  0  0  0
  -24.6771   21.0836   -9.7368 C   0  0  0  0  0  0
  1  2  1  0  0  0
  1  6  1  0  0  0
  2  3  1  0  0  0
  3  4  1  0  0  0
  3  7  1  0  0  0
  4  5  1  0  0  0
  5  6  1  0  0  0
  7  8  2  0  0  0
  7 16  1  0  0  0
  8  9  1  0  0  0
  9 10  2  0  0  0
  9 13  1  0  0  0
 10 11  1  0  0  0
 10 15  1  0  0  0
 11 12  1  0  0  0
 12 13  2  0  0  0
 13 14  1  0  0  0
 15 16  2  0  0  0
 15 17  1  0  0  0
 17 18  1  0  0  0
 17 22  1  0  0  0
 18 19  1  0  0  0
 19 20  1  0  0  0
 20 21  1  0  0  0
 21 22  1  0  0  0
M  END
>  <CHROM.0>
-60.87619623,-73.31554257,-11.17724761,63.25077078,-29.91038378,60.70216693
82.49174437,-162.39200704

>  <CHROM.1>
-105.78382055,-114.08053931,-24.08069543,23.28454075,-11.39238196,-0.45567294
0.53317593,1.77153943

>  <Name>
F6143-0252

>  <RI>
3.49576e+07

>  <Rbt.Current_Directory>
/home/adria/Escritorio/rDock_CMTR_LC/2pxcA_model/inputs_sah

>  <Rbt.Executable>
rbdock ($Id: //depot/dev/client3/rdock/2013.1/src/exe/rbdock.cxx#4 $)

>  <Rbt.Library>
libRbt.so (2013.1, Build901 2013/11/27)

>  <Rbt.Parameter_File>
/home/adria/Escritorio/rDock_2013.1_src/data/scripts/dock.prm

>  <Rbt.Receptor>
sah_rdock.prm

>  <SCORE>
-20.9774

>  <SCORE.INTER>
-10.7315

>  <SCORE.INTER.CONST>
1

>  <SCORE.INTER.POLAR>
-0.808175

>  <SCORE.INTER.REPUL>
0

>  <SCORE.INTER.ROT>
2

>  <SCORE.INTER.VDW>
-15.3837

>  <SCORE.INTER.norm>
-0.511023

>  <SCORE.INTRA>
-2.91526

>  <SCORE.INTRA.DIHEDRAL>
-0.0115388

>  <SCORE.INTRA.DIHEDRAL.0>
0.969261

>  <SCORE.INTRA.POLAR>
0

>  <SCORE.INTRA.POLAR.0>
0

>  <SCORE.INTRA.REPUL>
0

>  <SCORE.INTRA.REPUL.0>
0

>  <SCORE.INTRA.VDW>
-2.90949

>  <SCORE.INTRA.VDW.0>
1.01713

>  <SCORE.INTRA.norm>
-0.138822

>  <SCORE.RESTR>
0

>  <SCORE.RESTR.CAVITY>
0

>  <SCORE.RESTR.norm>
0

>  <SCORE.SYSTEM>
-7.33063

>  <SCORE.SYSTEM.CONST>
0

>  <SCORE.SYSTEM.DIHEDRAL>
9.36425

>  <SCORE.SYSTEM.POLAR>
-4.56396

>  <SCORE.SYSTEM.REPUL>
0.0390941

>  <SCORE.SYSTEM.VDW>
3.30924

>  <SCORE.SYSTEM.norm>
-0.349078

>  <SCORE.heavy>
21

>  <SCORE.norm>
-0.998923

$$$$
F6143-0252
  rDOCK(R)          3D
libRbt.so/2013.1/901 2013/11/27
 22 25  0  0  0  0  0  0  0  0999 V2000
  -26.0813   22.1841   -8.7884 C   0  0  0  0  0  0
  -26.3091   21.4374  -10.1151 C   0  0  0  0  0  0
  -25.0174   20.9634  -10.6226 N   0  0  0  0  0  0
  -24.3003   20.1211   -9.6608 C   0  0  0  0  0  0
  -24.1278   20.9009   -8.3444 C   0  0  0  0  0  0
  -25.3980   21.3499   -7.8295 O   0  0  0  0  0  0
  -24.2827   21.8101  -11.4342 C   0  0  0  0  0  0
  -24.7599   23.0450  -11.6574 N   0  0  0  0  0  0
  -23.9585   23.7758  -12.4377 C   0  0  0  0  0  0
  -22.7599   23.4096  -13.0121 C   0  0  0  0  0  0
  -22.2743   24.4758  -13.7344 N   0  0  0  0  0  0
  -23.1337   25.4845  -13.6242 N   0  0  0  0  0  0
  -24.1437   25.0614  -12.8429 N   0  3  0  0  0  0
  -24.9089   25.6871  -12.6290 H   0  0  0  0  0  0
  -22.3053   22.1030  -12.7519 C   0  0  0  0  0  0
  -23.1222   21.3439  -11.9513 N   0  0  0  0  0  0
  -21.1296   21.5284  -13.2403 N   0  0  0  0  0  0
  -20.3772   20.6905  -12.2928 C   0  0  0  0  0  0
  -19.2900   19.8814  -13.0127 C   0  0  0  0  0  0
  -18.4440   20.7226  -13.8083 O   0  0  0  0  0  0
  -19.2258   21.3637  -14.8247 C   0  0  0  0  0  0
  -20.3236   22.2592  -14.2292 C   0  0  0  0  0  0
  1  2  1  0  0  0
  1  6  1  0  0  0
  2  3  1  0  0  0
  3  4  1  0  0  0
  3  7  1  0  0  0
  4  5  1  0  0  0
  5  6  1  0  0  0
  7  8  2  0  0  0
  7 16  1  0  0  0
  8  9  1  0  0  0
  9 10  2  0  0  0
  9 13  1  0  0  0
 10 11  1  0  0  0
 10 15  1  0  0  0
 11 12  1  0  0  0
 12 13  2  0  0  0
 13 14  1  0  0  0
 15 16  2  0  0  0
 15 17  1  0  0  0
 17 18  1  0  0  0
 17 22  1  0  0  0
 18 19  1  0  0  0
 19 20  1  0  0  0
 20 21  1  0  0  0
 21 22  1  0  0  0
M  END
>  <CHROM.0>
179.28181424,66.36067226,-128.94722325,63.04506818,-30.43704101,-60.12933574
-36.80680149,-163.95848840

>  <CHROM.1>
3.34931032,139.71305699,-22.87512876,22.06976507,-11.88864528,-2.73495737
0.56921165,-0.67401491

>  <Name>
F6143-0252

>  <RI>
3.49576e+07

>  <Rbt.Current_Directory>
/home/adria/Escritorio/rDock_CMTR_LC/2pxcA_model/inputs_sah

>  <Rbt.Executable>
rbdock ($Id: //depot/dev/client3/rdock/2013.1/src/exe/rbdock.cxx#4 $)

>  <Rbt.Library>
libRbt.so (2013.1, Build901 2013/11/27)

>  <Rbt.Parameter_File>
/home/adria/Escritorio/rDock_2013.1_src/data/scripts/dock.prm

>  <Rbt.Receptor>
sah_rdock.prm

>  <SCORE>
-20.2636

>  <SCORE.INTER>
-13.3564

>  <SCORE.INTER.CONST>
1

>  <SCORE.INTER.POLAR>
-2.16987

>  <SCORE.INTER.REPUL>
0

>  <SCORE.INTER.ROT>
2

>  <SCORE.INTER.VDW>
-13.3788

>  <SCORE.INTER.norm>
-0.636019

>  <SCORE.INTRA>
-0.53641

>  <SCORE.INTRA.DIHEDRAL>
-0.00819641

>  <SCORE.INTRA.DIHEDRAL.0>
0.969261

>  <SCORE.INTRA.POLAR>
0

>  <SCORE.INTRA.POLAR.0>
0

>  <SCORE.INTRA.REPUL>
0

>  <SCORE.INTRA.REPUL.0>
0

>  <SCORE.INTRA.VDW>
-0.532312

>  <SCORE.INTRA.VDW.0>
1.01713

>  <SCORE.INTRA.norm>
-0.0255433

>  <SCORE.RESTR>
0

>  <SCORE.RESTR.CAVITY>
0

>  <SCORE.RESTR.norm>
0

>  <SCORE.SYSTEM>
-6.37078

>  <SCORE.SYSTEM.CONST>
0

>  <SCORE.SYSTEM.DIHEDRAL>
8.70825

>  <SCORE.SYSTEM.POLAR>
-4.19396

>  <SCORE.SYSTEM.VDW>
3.53457

>  <SCORE.SYSTEM.norm>
-0.30337

>  <SCORE.heavy>
21

>  <SCORE.norm>
-0.964932

$$$$
F6143-0252
  rDOCK(R)          3D
libRbt.so/2013.1/901 2013/11/27
 22 25  0  0  0  0  0  0  0  0999 V2000
  -19.9504   18.7325  -12.9108 C   0  0  0  0  0  0
  -20.9127   17.9720  -11.9806 C   0  0  0  0  0  0
  -22.2395   18.5916  -12.0586 N   0  0  0  0  0  0
  -22.7640   18.6479  -13.4263 C   0  0  0  0  0  0
  -21.7517   19.3881  -14.3198 C   0  0  0  0  0  0
  -20.4505   18.7686  -14.2638 O   0  0  0  0  0  0
  -22.5244   19.6384  -11.1993 C   0  0  0  0  0  0
  -22.6945   19.3600   -9.8969 N   0  0  0  0  0  0
  -22.9453   20.4485   -9.1640 C   0  0  0  0  0  0
  -23.0488   21.7570   -9.5856 C   0  0  0  0  0  0
  -23.3135   22.5517   -8.4935 N   0  0  0  0  0  0
  -23.3770   21.7763   -7.4151 N   0  0  0  0  0  0
  -23.1535   20.5134   -7.8209 N   0  3  0  0  0  0
  -23.1546   19.7613   -7.1448 H   0  0  0  0  0  0
  -22.8673   21.9959  -10.9610 C   0  0  0  0  0  0
  -22.6095   20.8834  -11.7228 N   0  0  0  0  0  0
  -22.9399   23.2373  -11.5970 N   0  0  0  0  0  0
  -23.8954   23.3379  -12.7119 C   0  0  0  0  0  0
  -24.1079   24.7997  -13.1280 C   0  0  0  0  0  0
  -22.8634   25.4592  -13.3976 O   0  0  0  0  0  0
  -22.0641   25.4784  -12.2076 C   0  0  0  0  0  0
  -21.7284   24.0618  -11.7153 C   0  0  0  0  0  0
  1  2  1  0  0  0
  1  6  1  0  0  0
  2  3  1  0  0  0
  3  4  1  0  0  0
  3  7  1  0  0  0
  4  5  1  0  0  0
  5  6  1  0  0  0
  7  8  2  0  0  0
  7 16  1  0  0  0
  8  9  1  0  0  0
  9 10  2  0  0  0
  9 13  1  0  0  0
 10 11  1  0  0  0
 10 15  1  0  0  0
 11 12  1  0  0  0
 12 13  2  0  0  0
 13 14  1  0  0  0
 15 16  2  0  0  0
 15 17  1  0  0  0
 17 18  1  0  0  0
 17 22  1  0  0  0
 18 19  1  0  0  0
 19 20  1  0  0  0
 20 21  1  0  0  0
 21 22  1  0  0  0
M  END
>  <CHROM.0>
-61.67401787,-75.24074326,72.07777482,-62.19783365,-30.37555442,62.74077116
84.61417140,-162.57246566

>  <CHROM.1>
-71.42910922,-124.30839031,-22.46669469,21.32005565,-11.47915394,-0.59168639
1.23193921,-0.76827323

>  <Name>
F6143-0252

>  <RI>
3.49576e+07

>  <Rbt.Current_Directory>
/home/adria/Escritorio/rDock_CMTR_LC/2pxcA_model/inputs_sah

>  <Rbt.Executable>
rbdock ($Id: //depot/dev/client3/rdock/2013.1/src/exe/rbdock.cxx#4 $)

>  <Rbt.Library>
libRbt.so (2013.1, Build901 2013/11/27)

>  <Rbt.Parameter_File>
/home/adria/Escritorio/rDock_2013.1_src/data/scripts/dock.prm

>  <Rbt.Receptor>
sah_rdock.prm

>  <SCORE>
-23.724

>  <SCORE.INTER>
-13.9347

>  <SCORE.INTER.CONST>
1

>  <SCORE.INTER.POLAR>
-2.39235

>  <SCORE.INTER.REPUL>
0.20338

>  <SCORE.INTER.ROT>
2

>  <SCORE.INTER.VDW>
-14.2176

>  <SCORE.INTER.norm>
-0.663555

>  <SCORE.INTRA>
-2.26713

>  <SCORE.INTRA.DIHEDRAL>
-0.0122976

>  <SCORE.INTRA.DIHEDRAL.0>
0.969261

>  <SCORE.INTRA.POLAR>
0

>  <SCORE.INTRA.POLAR.0>
0

>  <SCORE.INTRA.REPUL>
0

>  <SCORE.INTRA.REPUL.0>
0

>  <SCORE.INTRA.VDW>
-2.26098

>  <SCORE.INTRA.VDW.0>
1.01713

>  <SCORE.INTRA.norm>
-0.107958

>  <SCORE.RESTR>
0

>  <SCORE.RESTR.CAVITY>
0

>  <SCORE.RESTR.norm>
0

>  <SCORE.SYSTEM>
-7.52226

>  <SCORE.SYSTEM.CONST>
0

>  <SCORE.SYSTEM.DIHEDRAL>
6.74997

>  <SCORE.SYSTEM.POLAR>
-4.09883

>  <SCORE.SYSTEM.REPUL>
0.0422891

>  <SCORE.SYSTEM.VDW>
2.82732

>  <SCORE.SYSTEM.norm>
-0.358203

>  <SCORE.heavy>
21

>  <SCORE.norm>
-1.12972

$$$$
F6143-0252
  rDOCK(R)          3D
libRbt.so/2013.1/901 2013/11/27
 22 25  0  0  0  0  0  0  0  0999 V2000
  -19.8355   25.2121  -10.3376 C   0  0  0  0  0  0
  -20.7968   26.2016  -11.0204 C   0  0  0  0  0  0
  -22.1721   25.8771  -10.6279 N   0  0  0  0  0  0
  -22.3653   25.8731   -9.1748 C   0  0  0  0  0  0
  -21.3605   24.8944   -8.5395 C   0  0  0  0  0  0
  -20.0046   25.2232   -8.9046 O   0  0  0  0  0  0
  -22.8694   24.9550  -11.3886 C   0  0  0  0  0  0
  -23.3260   25.3417  -12.5905 N   0  0  0  0  0  0
  -23.9652   24.3645  -13.2396 C   0  0  0  0  0  0
  -24.1979   23.0714  -12.8219 C   0  0  0  0  0  0
  -24.8908   22.4080  -13.8089 N   0  0  0  0  0  0
  -25.0926   23.2493  -14.8187 N   0  0  0  0  0  0
  -24.5337   24.4234  -14.4744 N   0  3  0  0  0  0
  -24.5733   25.2052  -15.1149 H   0  0  0  0  0  0
  -23.7034   22.7168  -11.5525 C   0  0  0  0  0  0
  -23.0454   23.7144  -10.8772 N   0  0  0  0  0  0
  -23.8369   21.4703  -10.9364 N   0  0  0  0  0  0
  -24.2206   21.4889   -9.5157 C   0  0  0  0  0  0
  -24.6277   20.0898   -9.0344 C   0  0  0  0  0  0
  -23.6178   19.1149   -9.3275 O   0  0  0  0  0  0
  -23.4335   19.0284  -10.7466 C   0  0  0  0  0  0
  -22.9642   20.3616  -11.3497 C   0  0  0  0  0  0
  1  2  1  0  0  0
  1  6  1  0  0  0
  2  3  1  0  0  0
  3  4  1  0  0  0
  3  7  1  0  0  0
  4  5  1  0  0  0
  5  6  1  0  0  0
  7  8  2  0  0  0
  7 16  1  0  0  0
  8  9  1  0  0  0
  9 10  2  0  0  0
  9 13  1  0  0  0
 10 11  1  0  0  0
 10 15  1  0  0  0
 11 12  1  0  0  0
 12 13  2  0  0  0
 13 14  1  0  0  0
 15 16  2  0  0  0
 15 17  1  0  0  0
 17 18  1  0  0  0
 17 22  1  0  0  0
 18 19  1  0  0  0
 19 20  1  0  0  0
 20 21  1  0  0  0
 21 22  1  0  0  0
M  END
>  <CHROM.0>
-168.09685184,-166.89039628,-8.21953919,62.91068454,-30.51738983,-178.09446203
-38.20521226,-162.02089230

>  <CHROM.1>
-74.52670365,-135.40378586,-23.05955923,23.26723945,-11.15014699,-0.66198073
0.92232259,2.49773131

>  <Name>
F6143-0252

>  <RI>
3.49576e+07

>  <Rbt.Current_Directory>
/home/adria/Escritorio/rDock_CMTR_LC/2pxcA_model/inputs_sah

>  <Rbt.Executable>
rbdock ($Id: //depot/dev/client3/rdock/2013.1/src/exe/rbdock.cxx#4 $)

>  <Rbt.Library>
libRbt.so (2013.1, Build901 2013/11/27)

>  <Rbt.Parameter_File>
/home/adria/Escritorio/rDock_2013.1_src/data/scripts/dock.prm

>  <Rbt.Receptor>
sah_rdock.prm

>  <SCORE>
-14.15

>  <SCORE.INTER>
-6.489

>  <SCORE.INTER.CONST>
1

>  <SCORE.INTER.POLAR>
-1.48274

>  <SCORE.INTER.REPUL>
0.825629

>  <SCORE.INTER.ROT>
2

>  <SCORE.INTER.VDW>
-12.9758

>  <SCORE.INTER.norm>
-0.309

>  <SCORE.INTRA>
-2.18071

>  <SCORE.INTRA.DIHEDRAL>
-0.013485

>  <SCORE.INTRA.DIHEDRAL.0>
0.969261

>  <SCORE.INTRA.POLAR>
0

>  <SCORE.INTRA.POLAR.0>
0

>  <SCORE.INTRA.REPUL>
0

>  <SCORE.INTRA.REPUL.0>
0

>  <SCORE.INTRA.VDW>
-2.17397

>  <SCORE.INTRA.VDW.0>
1.01713

>  <SCORE.INTRA.norm>
-0.103843

>  <SCORE.RESTR>
0

>  <SCORE.RESTR.CAVITY>
0

>  <SCORE.RESTR.norm>
0

>  <SCORE.SYSTEM>
-5.48028

>  <SCORE.SYSTEM.CONST>
0

>  <SCORE.SYSTEM.DIHEDRAL>
9.98896

>  <SCORE.SYSTEM.POLAR>
-4.25487

>  <SCORE.SYSTEM.VDW>
3.99181

>  <SCORE.SYSTEM.norm>
-0.260966

>  <SCORE.heavy>
21

>  <SCORE.norm>
-0.673809

$$$$
F6143-0252
  rDOCK(R)          3D
libRbt.so/2013.1/901 2013/11/27
 22 25  0  0  0  0  0  0  0  0999 V2000
  -22.7614   18.9028  -14.4932 C   0  0  0  0  0  0
  -21.6211   19.8987  -14.2152 C   0  0  0  0  0  0
  -21.1493   19.7104  -12.8395 N   0  0  0  0  0  0
  -20.7252   18.3344  -12.5646 C   0  0  0  0  0  0
  -21.8880   17.3786  -12.8889 C   0  0  0  0  0  0
  -22.3407   17.5445  -14.2482 O   0  0  0  0  0  0
  -21.7739   20.4223  -11.8303 C   0  0  0  0  0  0
  -22.3459   19.7331  -10.8301 N   0  0  0  0  0  0
  -22.8995   20.5248   -9.9072 C   0  0  0  0  0  0
  -22.9475   21.9024   -9.8811 C   0  0  0  0  0  0
  -23.6128   22.2981   -8.7432 N   0  0  0  0  0  0
  -23.9761   21.2109   -8.0692 N   0  0  0  0  0  0
  -23.5445   20.1471   -8.7702 N   0  3  0  0  0  0
  -23.7175   19.2132   -8.4227 H   0  0  0  0  0  0
  -22.3378   22.5782  -10.9550 C   0  0  0  0  0  0
  -21.7665   21.7733  -11.9090 N   0  0  0  0  0  0
  -22.2812   23.9628  -11.1299 N   0  0  0  0  0  0
  -23.1068   24.5116  -12.2177 C   0  0  0  0  0  0
  -23.2015   26.0403  -12.1229 C   0  0  0  0  0  0
  -21.9045   26.6469  -12.0456 O   0  0  0  0  0  0
  -21.2360   26.1981  -10.8595 C   0  0  0  0  0  0
  -21.0247   24.6759  -10.8572 C   0  0  0  0  0  0
  1  2  1  0  0  0
  1  6  1  0  0  0
  2  3  1  0  0  0
  3  4  1  0  0  0
  3  7  1  0  0  0
  4  5  1  0  0  0
  5  6  1  0  0  0
  7  8  2  0  0  0
  7 16  1  0  0  0
  8  9  1  0  0  0
  9 10  2  0  0  0
  9 13  1  0  0  0
 10 11  1  0  0  0
 10 15  1  0  0  0
 11 12  1  0  0  0
 12 13  2  0  0  0
 13 14  1  0  0  0
 15 16  2  0  0  0
 15 17  1  0  0  0
 17 18  1  0  0  0
 17 22  1  0  0  0
 18 19  1  0  0  0
 19 20  1  0  0  0
 20 21  1  0  0  0
 21 22  1  0  0  0
M  END
>  <CHROM.0>
-61.74261368,-71.17043143,-170.98530225,63.84993127,-29.96890832,-59.72281252
-36.50379782,-163.08579219

>  <CHROM.1>
121.38983110,-109.39257407,-22.30404418,21.64362859,-11.53003462,-1.43879166
1.23838870,0.14998680

>  <Name>
F6143-0252

>  <RI>
3.49576e+07

>  <Rbt.Current_Directory>
/home/adria/Escritorio/rDock_CMTR_LC/2pxcA_model/inputs_sah

>  <Rbt.Executable>
rbdock ($Id: //depot/dev/client3/rdock/2013.1/src/exe/rbdock.cxx#4 $)

>  <Rbt.Library>
libRbt.so (2013.1, Build901 2013/11/27)

>  <Rbt.Parameter_File>
/home/adria/Escritorio/rDock_2013.1_src/data/scripts/dock.prm

>  <Rbt.Receptor>
sah_rdock.prm

>  <SCORE>
-23.2447

>  <SCORE.INTER>
-13.9578

>  <SCORE.INTER.CONST>
1

>  <SCORE.INTER.POLAR>
-2.2603

>  <SCORE.INTER.REPUL>
0.192531

>  <SCORE.INTER.ROT>
2

>  <SCORE.INTER.VDW>
-14.6355

>  <SCORE.INTER.norm>
-0.664659

>  <SCORE.INTRA>
-1.91018

>  <SCORE.INTRA.DIHEDRAL>
-0.0116443

>  <SCORE.INTRA.DIHEDRAL.0>
0.969261

>  <SCORE.INTRA.POLAR>
0

>  <SCORE.INTRA.POLAR.0>
0

>  <SCORE.INTRA.REPUL>
0

>  <SCORE.INTRA.REPUL.0>
0

>  <SCORE.INTRA.VDW>
-1.90436

>  <SCORE.INTRA.VDW.0>
1.01713

>  <SCORE.INTRA.norm>
-0.0909612

>  <SCORE.RESTR>
0

>  <SCORE.RESTR.CAVITY>
0

>  <SCORE.RESTR.norm>
0

>  <SCORE.SYSTEM>
-7.37668

>  <SCORE.SYSTEM.CONST>
0

>  <SCORE.SYSTEM.DIHEDRAL>
6.0943

>  <SCORE.SYSTEM.POLAR>
-3.87908

>  <SCORE.SYSTEM.REPUL>
0.0351059

>  <SCORE.SYSTEM.VDW>
2.58952

>  <SCORE.SYSTEM.norm>
-0.35127

>  <SCORE.heavy>
21

>  <SCORE.norm>
-1.10689

$$$$
F6143-0252
  rDOCK(R)          3D
libRbt.so/2013.1/901 2013/11/27
 22 25  0  0  0  0  0  0  0  0999 V2000
  -24.0806   20.8311   -8.2470 C   0  0  0  0  0  0
  -23.3150   22.0754   -7.7622 C   0  0  0  0  0  0
  -23.9026   23.2676   -8.3820 N   0  0  0  0  0  0
  -25.3390   23.3981   -8.1202 C   0  0  0  0  0  0
  -26.0517   22.1176   -8.5928 C   0  0  0  0  0  0
  -25.4919   20.9441   -7.9686 O   0  0  0  0  0  0
  -23.4171   23.6715   -9.6134 C   0  0  0  0  0  0
  -23.5119   24.9714   -9.9359 N   0  0  0  0  0  0
  -22.9947   25.2452  -11.1369 C   0  0  0  0  0  0
  -22.4114   24.3760  -12.0341 C   0  0  0  0  0  0
  -22.0149   25.0885  -13.1429 N   0  0  0  0  0  0
  -22.3353   26.3658  -12.9583 N   0  0  0  0  0  0
  -22.9221   26.4571  -11.7513 N   0  3  0  0  0  0
  -23.2403   27.3560  -11.4146 H   0  0  0  0  0  0
  -22.3405   23.0232  -11.6513 C   0  0  0  0  0  0
  -22.8699   22.7316  -10.4188 N   0  0  0  0  0  0
  -21.8024   21.9808  -12.4094 N   0  0  0  0  0  0
  -20.6848   22.3375  -13.2981 C   0  0  0  0  0  0
  -19.9880   21.0828  -13.8414 C   0  0  0  0  0  0
  -20.9216   20.1816  -14.4519 O   0  0  0  0  0  0
  -21.8699   19.7385  -13.4724 C   0  0  0  0  0  0
  -22.6825   20.9044  -12.8874 C   0  0  0  0  0  0
  1  2  1  0  0  0
  1  6  1  0  0  0
  2  3  1  0  0  0
  3  4  1  0  0  0
  3  7  1  0  0  0
  4  5  1  0  0  0
  5  6  1  0  0  0
  7  8  2  0  0  0
  7 16  1  0  0  0
  8  9  1  0  0  0
  9 10  2  0  0  0
  9 13  1  0  0  0
 10 11  1  0  0  0
 10 15  1  0  0  0
 11 12  1  0  0  0
 12 13  2  0  0  0
 13 14  1  0  0  0
 15 16  2  0  0  0
 15 17  1  0  0  0
 17 18  1  0  0  0
 17 22  1  0  0  0
 18 19  1  0  0  0
 19 20  1  0  0  0
 20 21  1  0  0  0
 21 22  1  0  0  0
M  END
>  <CHROM.0>
136.15311919,-73.14327651,-9.85569981,64.44788881,-31.34135606,-58.32529674
-157.10077023,-160.94430754

>  <CHROM.1>
-153.24962437,31.68518959,-22.91070580,22.84509111,-11.05296446,3.12861806
0.98912194,-0.07973055

>  <Name>
F6143-0252

>  <RI>
3.49576e+07

>  <Rbt.Current_Directory>
/home/adria/Escritorio/rDock_CMTR_LC/2pxcA_model/inputs_sah

>  <Rbt.Executable>
rbdock ($Id: //depot/dev/client3/rdock/2013.1/src/exe/rbdock.cxx#4 $)

>  <Rbt.Library>
libRbt.so (2013.1, Build901 2013/11/27)

>  <Rbt.Parameter_File>
/home/adria/Escritorio/rDock_2013.1_src/data/scripts/dock.prm

>  <Rbt.Receptor>
sah_rdock.prm

>  <SCORE>
-22.745

>  <SCORE.INTER>
-17.1229

>  <SCORE.INTER.CONST>
1

>  <SCORE.INTER.POLAR>
-3.52157

>  <SCORE.INTER.REPUL>
0

>  <SCORE.INTER.ROT>
2

>  <SCORE.INTER.VDW>
-12.5496

>  <SCORE.INTER.norm>
-0.815377

>  <SCORE.INTRA>
-1.60992

>  <SCORE.INTRA.DIHEDRAL>
-0.00563184

>  <SCORE.INTRA.DIHEDRAL.0>
0.969261

>  <SCORE.INTRA.POLAR>
0

>  <SCORE.INTRA.POLAR.0>
0

>  <SCORE.INTRA.REPUL>
0

>  <SCORE.INTRA.REPUL.0>
0

>  <SCORE.INTRA.VDW>
-1.6071

>  <SCORE.INTRA.VDW.0>
1.01713

>  <SCORE.INTRA.norm>
-0.0766627

>  <SCORE.RESTR>
0

>  <SCORE.RESTR.CAVITY>
0

>  <SCORE.RESTR.norm>
0

>  <SCORE.SYSTEM>
-4.01215

>  <SCORE.SYSTEM.CONST>
0

>  <SCORE.SYSTEM.DIHEDRAL>
15.2817

>  <SCORE.SYSTEM.POLAR>
-4.58277

>  <SCORE.SYSTEM.REPUL>
0.0387904

>  <SCORE.SYSTEM.VDW>
3.73447

>  <SCORE.SYSTEM.norm>
-0.191055

>  <SCORE.heavy>
21

>  <SCORE.norm>
-1.08309

$$$$
F6143-0252
  rDOCK(R)          3D
libRbt.so/2013.1/901 2013/11/27
 22 25  0  0  0  0  0  0  0  0999 V2000
  -22.3878   24.8316  -12.3751 C   0  0  0  0  0  0
  -23.7834   25.2068  -12.9054 C   0  0  0  0  0  0
  -24.7671   24.2615  -12.3676 N   0  0  0  0  0  0
  -24.7593   24.2009  -10.9030 C   0  0  0  0  0  0
  -23.3372   23.8551  -10.4245 C   0  0  0  0  0  0
  -22.3689   24.7954  -10.9328 O   0  0  0  0  0  0
  -25.0102   23.0970  -13.0747 C   0  0  0  0  0  0
  -25.4479   23.2040  -14.3395 N   0  0  0  0  0  0
  -25.6290   22.0174  -14.9261 C   0  0  0  0  0  0
  -25.4301   20.7617  -14.3928 C   0  0  0  0  0  0
  -25.7375   19.8229  -15.3512 N   0  0  0  0  0  0
  -26.1192   20.4585  -16.4551 N   0  0  0  0  0  0
  -26.0512   21.7770  -16.1971 N   0  3  0  0  0  0
  -26.2990   22.4428  -16.9169 H   0  0  0  0  0  0
  -24.9756   20.7031  -13.0618 C   0  0  0  0  0  0
  -24.7869   21.9174  -12.4501 N   0  0  0  0  0  0
  -24.7214   19.5411  -12.3297 N   0  0  0  0  0  0
  -23.4954   18.8083  -12.6846 C   0  0  0  0  0  0
  -23.1655   17.7401  -11.6333 C   0  0  0  0  0  0
  -24.2828   16.8748  -11.3898 O   0  0  0  0  0  0
  -25.3784   17.6415  -10.8730 C   0  0  0  0  0  0
  -25.8474   18.7182  -11.8642 C   0  0  0  0  0  0
  1  2  1  0  0  0
  1  6  1  0  0  0
  2  3  1  0  0  0
  3  4  1  0  0  0
  3  7  1  0  0  0
  4  5  1  0  0  0
  5  6  1  0  0  0
  7  8  2  0  0  0
  7 16  1  0  0  0
  8  9  1  0  0  0
  9 10  2  0  0  0
  9 13  1  0  0  0
 10 11  1  0  0  0
 10 15  1  0  0  0
 11 12  1  0  0  0
 12 13  2  0  0  0
 13 14  1  0  0  0
 15 16  2  0  0  0
 15 17  1  0  0  0
 17 18  1  0  0  0
 17 22  1  0  0  0
 18 19  1  0  0  0
 19 20  1  0  0  0
 20 21  1  0  0  0
 21 22  1  0  0  0
M  END
>  <CHROM.0>
-177.84388115,65.15888553,109.99493301,62.95220120,168.02748241,59.94565215
83.52624252,-161.61099140

>  <CHROM.1>
-58.92426593,74.24659494,-24.61242066,21.42927116,-12.86454442,-1.18611758
1.09230557,2.86604225

>  <Name>
F6143-0252

>  <RI>
3.49576e+07

>  <Rbt.Current_Directory>
/home/adria/Escritorio/rDock_CMTR_LC/2pxcA_model/inputs_sah

>  <Rbt.Executable>
rbdock ($Id: //depot/dev/client3/rdock/2013.1/src/exe/rbdock.cxx#4 $)

>  <Rbt.Library>
libRbt.so (2013.1, Build901 2013/11/27)

>  <Rbt.Parameter_File>
/home/adria/Escritorio/rDock_2013.1_src/data/scripts/dock.prm

>  <Rbt.Receptor>
sah_rdock.prm

>  <SCORE>
-7.55169

>  <SCORE.INTER>
-3.87264

>  <SCORE.INTER.CONST>
1

>  <SCORE.INTER.POLAR>
-0.234613

>  <SCORE.INTER.REPUL>
0

>  <SCORE.INTER.ROT>
2

>  <SCORE.INTER.VDW>
-10.475

>  <SCORE.INTER.norm>
-0.184411

>  <SCORE.INTRA>
-2.082

>  <SCORE.INTRA.DIHEDRAL>
-0.0081341

>  <SCORE.INTRA.DIHEDRAL.0>
0.969261

>  <SCORE.INTRA.POLAR>
0

>  <SCORE.INTRA.POLAR.0>
0

>  <SCORE.INTRA.REPUL>
0

>  <SCORE.INTRA.REPUL.0>
0

>  <SCORE.INTRA.VDW>
-2.07794

>  <SCORE.INTRA.VDW.0>
1.01713

>  <SCORE.INTRA.norm>
-0.099143

>  <SCORE.RESTR>
0.00938099

>  <SCORE.RESTR.CAVITY>
0.00938099

>  <SCORE.RESTR.norm>
0.000446714

>  <SCORE.SYSTEM>
-1.60643

>  <SCORE.SYSTEM.CONST>
0

>  <SCORE.SYSTEM.DIHEDRAL>
5.91886

>  <SCORE.SYSTEM.POLAR>
-4.16015

>  <SCORE.SYSTEM.VDW>
9.57863

>  <SCORE.SYSTEM.norm>
-0.0764969

>  <SCORE.heavy>
21

>  <SCORE.norm>
-0.359604

$$$$
F6143-0252
  rDOCK(R)          3D
libRbt.so/2013.1/901 2013/11/27
 22 25  0  0  0  0  0  0  0  0999 V2000
  -19.4388   18.2761  -14.3148 C   0  0  0  0  0  0
  -18.9686   19.6717  -14.7629 C   0  0  0  0  0  0
  -18.7322   19.6527  -16.2100 N   0  0  0  0  0  0
  -19.9064   19.2221  -16.9748 C   0  0  0  0  0  0
  -20.3543   17.8393  -16.4667 C   0  0  0  0  0  0
  -20.6097   17.8587  -15.0474 O   0  0  0  0  0  0
  -17.4779   19.2833  -16.6634 C   0  0  0  0  0  0
  -16.5598   20.2467  -16.8409 N   0  0  0  0  0  0
  -15.3848   19.7700  -17.2616 C   0  0  0  0  0  0
  -15.0386   18.4617  -17.5248 C   0  0  0  0  0  0
  -13.7245   18.4277  -17.9327 N   0  0  0  0  0  0
  -13.2513   19.6704  -17.9299 N   0  0  0  0  0  0
  -14.2507   20.4744  -17.5244 N   0  3  0  0  0  0
  -14.0942   21.4707  -17.4486 H   0  0  0  0  0  0
  -16.0378   17.4898  -17.3280 C   0  0  0  0  0  0
  -17.2492   17.9699  -16.8962 N   0  0  0  0  0  0
  -15.9035   16.1164  -17.5440 N   0  0  0  0  0  0
  -15.8379   15.2754  -16.3380 C   0  0  0  0  0  0
  -15.9958   13.7902  -16.6901 C   0  0  0  0  0  0
  -15.0667   13.3854  -17.7046 O   0  0  0  0  0  0
  -15.3173   14.1258  -18.9063 C   0  0  0  0  0  0
  -15.1335   15.6377  -18.7014 C   0  0  0  0  0  0
  1  2  1  0  0  0
  1  6  1  0  0  0
  2  3  1  0  0  0
  3  4  1  0  0  0
  3  7  1  0  0  0
  4  5  1  0  0  0
  5  6  1  0  0  0
  7  8  2  0  0  0
  7 16  1  0  0  0
  8  9  1  0  0  0
  9 10  2  0  0  0
  9 13  1  0  0  0
 10 11  1  0  0  0
 10 15  1  0  0  0
 11 12  1  0  0  0
 12 13  2  0  0  0
 13 14  1  0  0  0
 15 16  2  0  0  0
 15 17  1  0  0  0
 17 18  1  0  0  0
 17 22  1  0  0  0
 18 19  1  0  0  0
 19 20  1  0  0  0
 20 21  1  0  0  0
 21 22  1  0  0  0
M  END
>  <CHROM.0>
-175.24245434,-72.62995890,-129.66342976,-60.32851867,168.38801362,-57.29471877
-37.32275882,-162.38428422

>  <CHROM.1>
-90.62646315,107.52263978,-16.70451671,17.70070987,-16.91840286,2.50280228
0.40051601,0.08486293

>  <Name>
F6143-0252

>  <RI>
3.49576e+07

>  <Rbt.Current_Directory>
/home/adria/Escritorio/rDock_CMTR_LC/2pxcA_model/inputs_sah

>  <Rbt.Executable>
rbdock ($Id: //depot/dev/client3/rdock/2013.1/src/exe/rbdock.cxx#4 $)

>  <Rbt.Library>
libRbt.so (2013.1, Build901 2013/11/27)

>  <Rbt.Parameter_File>
/home/adria/Escritorio/rDock_2013.1_src/data/scripts/dock.prm

>  <Rbt.Receptor>
sah_rdock.prm

>  <SCORE>
-23.114

>  <SCORE.INTER>
-18.9616

>  <SCORE.INTER.CONST>
1

>  <SCORE.INTER.POLAR>
-2.11899

>  <SCORE.INTER.REPUL>
0.00973648

>  <SCORE.INTER.ROT>
2

>  <SCORE.INTER.VDW>
-19.2058

>  <SCORE.INTER.norm>
-0.902934

>  <SCORE.INTRA>
-2.54341

>  <SCORE.INTRA.DIHEDRAL>
-0.013797

>  <SCORE.INTRA.DIHEDRAL.0>
0.969261

>  <SCORE.INTRA.POLAR>
0

>  <SCORE.INTRA.POLAR.0>
0

>  <SCORE.INTRA.REPUL>
0

>  <SCORE.INTRA.REPUL.0>
0

>  <SCORE.INTRA.VDW>
-2.53652

>  <SCORE.INTRA.VDW.0>
1.01713

>  <SCORE.INTRA.norm>
-0.121115

>  <SCORE.RESTR>
0

>  <SCORE.RESTR.CAVITY>
0

>  <SCORE.RESTR.norm>
0

>  <SCORE.SYSTEM>
-1.609

>  <SCORE.SYSTEM.CONST>
0

>  <SCORE.SYSTEM.DIHEDRAL>
6.47476

>  <SCORE.SYSTEM.POLAR>
-4.40683

>  <SCORE.SYSTEM.REPUL>
0.037868

>  <SCORE.SYSTEM.VDW>
9.9475

>  <SCORE.SYSTEM.norm>
-0.0766189

>  <SCORE.heavy>
21

>  <SCORE.norm>
-1.10067

$$$$
F6143-0252
  rDOCK(R)          3D
libRbt.so/2013.1/901 2013/11/27
 22 25  0  0  0  0  0  0  0  0999 V2000
  -23.7317   24.5633  -13.7878 C   0  0  0  0  0  0
  -24.2692   25.4781  -12.6726 C   0  0  0  0  0  0
  -23.4969   25.2412  -11.4487 N   0  0  0  0  0  0
  -22.0557   25.4317  -11.6370 C   0  0  0  0  0  0
  -21.5763   24.5203  -12.7818 C   0  0  0  0  0  0
  -22.3180   24.7656  -13.9941 O   0  0  0  0  0  0
  -23.9237   24.2447  -10.5883 C   0  0  0  0  0  0
  -24.6662   24.5994   -9.5275 N   0  0  0  0  0  0
  -25.0346   23.5541   -8.7814 C   0  0  0  0  0  0
  -24.7406   22.2210   -8.9744 C   0  0  0  0  0  0
  -25.3267   21.4906   -7.9658 N   0  0  0  0  0  0
  -25.9704   22.3292   -7.1590 N   0  0  0  0  0  0
  -25.7945   23.5681   -7.6528 N   0  3  0  0  0  0
  -26.2127   24.3599   -7.1827 H   0  0  0  0  0  0
  -23.9549   21.9015  -10.0979 C   0  0  0  0  0  0
  -23.5709   22.9690  -10.8707 N   0  0  0  0  0  0
  -23.5350   20.6227  -10.4713 N   0  0  0  0  0  0
  -22.1303   20.5007  -10.8929 C   0  0  0  0  0  0
  -21.7063   19.0287  -10.9852 C   0  0  0  0  0  0
  -22.6041   18.2702  -11.8068 O   0  0  0  0  0  0
  -23.9151   18.2890  -11.2273 C   0  0  0  0  0  0
  -24.4833   19.7137  -11.1317 C   0  0  0  0  0  0
  1  2  1  0  0  0
  1  6  1  0  0  0
  2  3  1  0  0  0
  3  4  1  0  0  0
  3  7  1  0  0  0
  4  5  1  0  0  0
  5  6  1  0  0  0
  7  8  2  0  0  0
  7 16  1  0  0  0
  8  9  1  0  0  0
  9 10  2  0  0  0
  9 13  1  0  0  0
 10 11  1  0  0  0
 10 15  1  0  0  0
 11 12  1  0  0  0
 12 13  2  0  0  0
 13 14  1  0  0  0
 15 16  2  0  0  0
 15 17  1  0  0  0
 17 18  1  0  0  0
 17 22  1  0  0  0
 18 19  1  0  0  0
 19 20  1  0  0  0
 20 21  1  0  0  0
 21 22  1  0  0  0
M  END
>  <CHROM.0>
165.02714382,-72.04897066,-15.08824804,64.21242474,-30.28932668,62.56519306
-38.26410256,-160.80397390

>  <CHROM.1>
-97.58237730,-135.90464967,-23.72490303,22.51827968,-10.73666835,-1.37876580
-0.99193261,2.92107488

>  <Name>
F6143-0252

>  <RI>
3.49576e+07

>  <Rbt.Current_Directory>
/home/adria/Escritorio/rDock_CMTR_LC/2pxcA_model/inputs_sah

>  <Rbt.Executable>
rbdock ($Id: //depot/dev/client3/rdock/2013.1/src/exe/rbdock.cxx#4 $)

>  <Rbt.Library>
libRbt.so (2013.1, Build901 2013/11/27)

>  <Rbt.Parameter_File>
/home/adria/Escritorio/rDock_2013.1_src/data/scripts/dock.prm

>  <Rbt.Receptor>
sah_rdock.prm

>  <SCORE>
-25.3404

>  <SCORE.INTER>
-16.7951

>  <SCORE.INTER.CONST>
1

>  <SCORE.INTER.POLAR>
-3.42504

>  <SCORE.INTER.REPUL>
0

>  <SCORE.INTER.ROT>
2

>  <SCORE.INTER.VDW>
-12.55

>  <SCORE.INTER.norm>
-0.799766

>  <SCORE.INTRA>
-2.59653

>  <SCORE.INTRA.DIHEDRAL>
-0.0146316

>  <SCORE.INTRA.DIHEDRAL.0>
0.969261

>  <SCORE.INTRA.POLAR>
0

>  <SCORE.INTRA.POLAR.0>
0

>  <SCORE.INTRA.REPUL>
0

>  <SCORE.INTRA.REPUL.0>
0

>  <SCORE.INTRA.VDW>
-2.58921

>  <SCORE.INTRA.VDW.0>
1.01713

>  <SCORE.INTRA.norm>
-0.123644

>  <SCORE.RESTR>
0.27187

>  <SCORE.RESTR.CAVITY>
0.27187

>  <SCORE.RESTR.norm>
0.0129462

>  <SCORE.SYSTEM>
-6.2206

>  <SCORE.SYSTEM.CONST>
0

>  <SCORE.SYSTEM.DIHEDRAL>
10.024

>  <SCORE.SYSTEM.POLAR>
-4.38553

>  <SCORE.SYSTEM.REPUL>
0.0367931

>  <SCORE.SYSTEM.VDW>
3.49424

>  <SCORE.SYSTEM.norm>
-0.296219

>  <SCORE.heavy>
21

>  <SCORE.norm>
-1.20668

$$$$
F6143-0252
  rDOCK(R)          3D
libRbt.so/2013.1/901 2013/11/27
 22 25  0  0  0  0  0  0  0  0999 V2000
  -20.4413   23.7503  -11.3385 C   0  0  0  0  0  0
  -20.8700   23.8560  -12.8132 C   0  0  0  0  0  0
  -22.1257   24.6095  -12.8911 N   0  0  0  0  0  0
  -22.0354   25.9355  -12.2728 C   0  0  0  0  0  0
  -21.5729   25.7758  -10.8128 C   0  0  0  0  0  0
  -20.3264   25.0548  -10.7326 O   0  0  0  0  0  0
  -23.3157   23.9111  -12.7833 C   0  0  0  0  0  0
  -24.0510   23.7380  -13.8932 N   0  0  0  0  0  0
  -25.1651   23.0350  -13.6710 C   0  0  0  0  0  0
  -25.6168   22.5035  -12.4817 C   0  0  0  0  0  0
  -26.8077   21.8539  -12.7141 N   0  0  0  0  0  0
  -27.1039   21.9685  -14.0055 N   0  0  0  0  0  0
  -26.1141   22.6771  -14.5780 N   0  3  0  0  0  0
  -26.1465   22.8742  -15.5694 H   0  0  0  0  0  0
  -24.8126   22.7167  -11.3462 C   0  0  0  0  0  0
  -23.6655   23.4387  -11.5643 N   0  0  0  0  0  0
  -25.0871   22.2769  -10.0493 N   0  0  0  0  0  0
  -24.8256   20.8538   -9.7801 C   0  0  0  0  0  0
  -24.8715   20.5581   -8.2749 C   0  0  0  0  0  0
  -26.0907   21.0242   -7.6812 O   0  0  0  0  0  0
  -26.1811   22.4474   -7.8275 C   0  0  0  0  0  0
  -26.2038   22.8753   -9.3033 C   0  0  0  0  0  0
  1  2  1  0  0  0
  1  6  1  0  0  0
  2  3  1  0  0  0
  3  4  1  0  0  0
  3  7  1  0  0  0
  4  5  1  0  0  0
  5  6  1  0  0  0
  7  8  2  0  0  0
  7 16  1  0  0  0
  8  9  1  0  0  0
  9 10  2  0  0  0
  9 13  1  0  0  0
 10 11  1  0  0  0
 10 15  1  0  0  0
 11 12  1  0  0  0
 12 13  2  0  0  0
 13 14  1  0  0  0
 15 16  2  0  0  0
 15 17  1  0  0  0
 17 18  1  0  0  0
 17 22  1  0  0  0
 18 19  1  0  0  0
 19 20  1  0  0  0
 20 21  1  0  0  0
 21 22  1  0  0  0
M  END
>  <CHROM.0>
179.23055698,66.50563559,-44.72339304,63.27028373,-31.38340159,60.04812465
-37.95429872,-163.95523930

>  <CHROM.1>
-106.73446575,77.56932884,-24.13422114,23.08853029,-11.41975247,-0.53351139
0.50307759,1.80437664

>  <Name>
F6143-0252

>  <RI>
3.49576e+07

>  <Rbt.Current_Directory>
/home/adria/Escritorio/rDock_CMTR_LC/2pxcA_model/inputs_sah

>  <Rbt.Executable>
rbdock ($Id: //depot/dev/client3/rdock/2013.1/src/exe/rbdock.cxx#4 $)

>  <Rbt.Library>
libRbt.so (2013.1, Build901 2013/11/27)

>  <Rbt.Parameter_File>
/home/adria/Escritorio/rDock_2013.1_src/data/scripts/dock.prm

>  <Rbt.Receptor>
sah_rdock.prm

>  <SCORE>
-16.5341

>  <SCORE.INTER>
-7.13761

>  <SCORE.INTER.CONST>
1

>  <SCORE.INTER.POLAR>
-0.201283

>  <SCORE.INTER.REPUL>
0.0169709

>  <SCORE.INTER.ROT>
2

>  <SCORE.INTER.VDW>
-13.9381

>  <SCORE.INTER.norm>
-0.339886

>  <SCORE.INTRA>
-2.91494

>  <SCORE.INTRA.DIHEDRAL>
-0.0104094

>  <SCORE.INTRA.DIHEDRAL.0>
0.969261

>  <SCORE.INTRA.POLAR>
0

>  <SCORE.INTRA.POLAR.0>
0

>  <SCORE.INTRA.REPUL>
0

>  <SCORE.INTRA.REPUL.0>
0

>  <SCORE.INTRA.VDW>
-2.90974

>  <SCORE.INTRA.VDW.0>
1.01713

>  <SCORE.INTRA.norm>
-0.138807

>  <SCORE.RESTR>
0.27854

>  <SCORE.RESTR.CAVITY>
0.27854

>  <SCORE.RESTR.norm>
0.0132638

>  <SCORE.SYSTEM>
-6.76006

>  <SCORE.SYSTEM.CONST>
0

>  <SCORE.SYSTEM.DIHEDRAL>
5.58618

>  <SCORE.SYSTEM.POLAR>
-3.62212

>  <SCORE.SYSTEM.VDW>
2.76206

>  <SCORE.SYSTEM.norm>
-0.321908

>  <SCORE.heavy>
21

>  <SCORE.norm>
-0.787337

$$$$
