F0777-2196
  rDOCK(R)          3D
libRbt.so/2013.1/901 2013/11/27
 19 20  0  0  0  0  0  0  0  0999 V2000
  -22.7329   20.8496  -12.5732 O   0  0  0  0  0  0
  -21.7133   20.7349  -13.4833 C   0  0  0  0  0  0
  -20.6124   21.6042  -13.4679 C   0  0  0  0  0  0
  -19.5876   21.4590  -14.4086 C   0  0  0  0  0  0
  -19.6749   20.4536  -15.3701 C   0  0  0  0  0  0
  -18.4234   20.2882  -16.5394 Cl  0  0  0  0  0  0
  -20.7666   19.5894  -15.4010 C   0  0  0  0  0  0
  -21.7836   19.7287  -14.4545 C   0  0  0  0  0  0
  -23.1201   18.6377  -14.5284 Cl  0  0  0  0  0  0
  -20.4909   22.7116  -12.4951 C   0  0  0  0  0  0
  -21.4663   23.0133  -11.6940 N   0  0  0  0  0  0
  -21.2573   24.0619  -10.8397 C   0  0  0  0  0  0
  -22.1080   24.6641   -9.9939 C   0  0  0  0  0  0
  -21.4791   25.8404   -9.3176 C   0  0  0  0  0  0
  -19.9959   25.6648   -9.6339 C   0  0  0  0  0  0
  -19.9355   24.7752  -10.8731 C   0  0  0  0  0  0
  -23.4505   24.2774   -9.7602 C   0  0  0  0  0  0
  -24.5347   23.9340   -9.5375 N   0  0  0  0  0  0
  -23.0145   19.9432  -12.3147 H   0  0  0  0  0  0
  1  2  1  0  0  0
  1 19  1  0  0  0
  2  3  2  0  0  0
  2  8  1  0  0  0
  3  4  1  0  0  0
  3 10  1  0  0  0
  4  5  2  0  0  0
  5  6  1  0  0  0
  5  7  1  0  0  0
  7  8  2  0  0  0
  8  9  1  0  0  0
 10 11  2  0  0  0
 11 12  1  0  0  0
 12 13  2  0  0  0
 12 16  1  0  0  0
 13 14  1  0  0  0
 13 17  1  0  0  0
 14 15  1  0  0  0
 15 16  1  0  0  0
 17 18  3  0  0  0
M  END
>  <CHROM.0>
-179.32898123,-73.20230729,-46.87455950,64.24328395,-29.83854980,-177.99652123
-38.16977541,-161.55032899

>  <CHROM.1>
-141.12137745,-7.05756852,173.70271921,-21.22231239,21.90846587,-12.91488399
1.36639524,-0.44792906,-2.39874170

>  <Name>
F0777-2196

>  <RI>
3.63994e+07

>  <Rbt.Current_Directory>
/home/adria/Escritorio/rDock_CMTR_LC/2pxcA_model/inputs_sah

>  <Rbt.Executable>
rbdock ($Id: //depot/dev/client3/rdock/2013.1/src/exe/rbdock.cxx#4 $)

>  <Rbt.Library>
libRbt.so (2013.1, Build901 2013/11/27)

>  <Rbt.Parameter_File>
/home/adria/Escritorio/rDock_2013.1_src/data/scripts/dock.prm

>  <Rbt.Receptor>
sah_rdock.prm

>  <SCORE>
-25.662

>  <SCORE.INTER>
-9.49267

>  <SCORE.INTER.CONST>
1

>  <SCORE.INTER.POLAR>
0

>  <SCORE.INTER.REPUL>
0

>  <SCORE.INTER.ROT>
2

>  <SCORE.INTER.VDW>
-16.8927

>  <SCORE.INTER.norm>
-0.527371

>  <SCORE.INTRA>
-8.95243

>  <SCORE.INTRA.DIHEDRAL>
-30.2726

>  <SCORE.INTRA.DIHEDRAL.0>
32.6986

>  <SCORE.INTRA.POLAR>
0.927915

>  <SCORE.INTRA.POLAR.0>
-0.927915

>  <SCORE.INTRA.REPUL>
0

>  <SCORE.INTRA.REPUL.0>
0

>  <SCORE.INTRA.VDW>
3.02893

>  <SCORE.INTRA.VDW.0>
-0.101679

>  <SCORE.INTRA.norm>
-0.497357

>  <SCORE.RESTR>
0

>  <SCORE.RESTR.CAVITY>
0

>  <SCORE.RESTR.norm>
0

>  <SCORE.SYSTEM>
-7.21693

>  <SCORE.SYSTEM.CONST>
0

>  <SCORE.SYSTEM.DIHEDRAL>
6.50032

>  <SCORE.SYSTEM.POLAR>
-3.97064

>  <SCORE.SYSTEM.REPUL>
0.0388948

>  <SCORE.SYSTEM.VDW>
2.83862

>  <SCORE.SYSTEM.norm>
-0.40094

>  <SCORE.heavy>
18

>  <SCORE.norm>
-1.42567

$$$$
F0777-2196
  rDOCK(R)          3D
libRbt.so/2013.1/901 2013/11/27
 19 20  0  0  0  0  0  0  0  0999 V2000
  -21.8271   20.0388  -10.6935 O   0  0  0  0  0  0
  -21.9244   21.3444  -11.1020 C   0  0  0  0  0  0
  -21.2379   21.8148  -12.2314 C   0  0  0  0  0  0
  -21.3603   23.1518  -12.6233 C   0  0  0  0  0  0
  -22.1577   24.0167  -11.8757 C   0  0  0  0  0  0
  -22.2919   25.6662  -12.3470 Cl  0  0  0  0  0  0
  -22.8377   23.5639  -10.7478 C   0  0  0  0  0  0
  -22.7232   22.2263  -10.3640 C   0  0  0  0  0  0
  -23.5816   21.7057   -8.9589 Cl  0  0  0  0  0  0
  -20.3481   20.9490  -13.0352 C   0  0  0  0  0  0
  -19.6737   21.4234  -14.0373 N   0  0  0  0  0  0
  -18.8881   20.5372  -14.7234 C   0  0  0  0  0  0
  -18.6729   19.2306  -14.5035 C   0  0  0  0  0  0
  -17.6571   18.6689  -15.4466 C   0  0  0  0  0  0
  -17.5270   19.7641  -16.5021 C   0  0  0  0  0  0
  -18.0158   21.0473  -15.8351 C   0  0  0  0  0  0
  -19.2940   18.4503  -13.4977 C   0  0  0  0  0  0
  -19.8348   17.8031  -12.7028 N   0  0  0  0  0  0
  -20.8804   19.7751  -10.7374 H   0  0  0  0  0  0
  1  2  1  0  0  0
  1 19  1  0  0  0
  2  3  2  0  0  0
  2  8  1  0  0  0
  3  4  1  0  0  0
  3 10  1  0  0  0
  4  5  2  0  0  0
  5  6  1  0  0  0
  5  7  1  0  0  0
  7  8  2  0  0  0
  8  9  1  0  0  0
 10 11  2  0  0  0
 11 12  1  0  0  0
 12 13  2  0  0  0
 12 16  1  0  0  0
 13 14  1  0  0  0
 13 17  1  0  0  0
 14 15  1  0  0  0
 15 16  1  0  0  0
 17 18  3  0  0  0
M  END
>  <CHROM.0>
-58.92388553,-167.19761033,73.02189426,64.03630682,-30.42170258,63.62652610
83.90565381,-160.47790886

>  <CHROM.1>
44.27890579,-176.62708924,-1.76901973,-20.90381819,21.54703571,-12.50824739
2.88287898,0.88707315,-0.37640239

>  <Name>
F0777-2196

>  <RI>
3.63994e+07

>  <Rbt.Current_Directory>
/home/adria/Escritorio/rDock_CMTR_LC/2pxcA_model/inputs_sah

>  <Rbt.Executable>
rbdock ($Id: //depot/dev/client3/rdock/2013.1/src/exe/rbdock.cxx#4 $)

>  <Rbt.Library>
libRbt.so (2013.1, Build901 2013/11/27)

>  <Rbt.Parameter_File>
/home/adria/Escritorio/rDock_2013.1_src/data/scripts/dock.prm

>  <Rbt.Receptor>
sah_rdock.prm

>  <SCORE>
-33.0262

>  <SCORE.INTER>
-15.5661

>  <SCORE.INTER.CONST>
1

>  <SCORE.INTER.POLAR>
-1.77952

>  <SCORE.INTER.REPUL>
0

>  <SCORE.INTER.ROT>
2

>  <SCORE.INTER.VDW>
-16.9157

>  <SCORE.INTER.norm>
-0.864784

>  <SCORE.INTRA>
-10.97

>  <SCORE.INTRA.DIHEDRAL>
-30.1696

>  <SCORE.INTRA.DIHEDRAL.0>
32.6986

>  <SCORE.INTRA.POLAR>
0.927915

>  <SCORE.INTRA.POLAR.0>
-0.927915

>  <SCORE.INTRA.REPUL>
0

>  <SCORE.INTRA.REPUL.0>
0

>  <SCORE.INTRA.VDW>
0.959862

>  <SCORE.INTRA.VDW.0>
-0.101679

>  <SCORE.INTRA.norm>
-0.609446

>  <SCORE.RESTR>
0

>  <SCORE.RESTR.CAVITY>
0

>  <SCORE.RESTR.norm>
0

>  <SCORE.SYSTEM>
-6.49004

>  <SCORE.SYSTEM.CONST>
0

>  <SCORE.SYSTEM.DIHEDRAL>
6.59174

>  <SCORE.SYSTEM.POLAR>
-3.76174

>  <SCORE.SYSTEM.VDW>
3.00402

>  <SCORE.SYSTEM.norm>
-0.360558

>  <SCORE.heavy>
18

>  <SCORE.norm>
-1.83479

$$$$
F0777-2196
  rDOCK(R)          3D
libRbt.so/2013.1/901 2013/11/27
 19 20  0  0  0  0  0  0  0  0999 V2000
  -23.3345   23.6363  -13.7484 O   0  0  0  0  0  0
  -22.3404   24.0220  -12.8859 C   0  0  0  0  0  0
  -21.3032   23.1502  -12.5220 C   0  0  0  0  0  0
  -20.3028   23.5752  -11.6418 C   0  0  0  0  0  0
  -20.3513   24.8659  -11.1179 C   0  0  0  0  0  0
  -19.1310   25.3812  -10.0196 Cl  0  0  0  0  0  0
  -21.3802   25.7381  -11.4649 C   0  0  0  0  0  0
  -22.3723   25.3161  -12.3522 C   0  0  0  0  0  0
  -23.6307   26.4278  -12.7555 Cl  0  0  0  0  0  0
  -21.2273   21.7588  -13.0176 C   0  0  0  0  0  0
  -20.1203   21.0839  -12.9605 N   0  0  0  0  0  0
  -20.1526   19.8084  -13.4557 C   0  0  0  0  0  0
  -21.1975   19.0709  -13.8631 C   0  0  0  0  0  0
  -20.7845   17.6842  -14.2414 C   0  0  0  0  0  0
  -19.2634   17.7889  -14.3189 C   0  0  0  0  0  0
  -18.8847   19.0027  -13.4742 C   0  0  0  0  0  0
  -22.5435   19.5084  -13.9199 C   0  0  0  0  0  0
  -23.6375   19.8808  -14.0072 N   0  0  0  0  0  0
  -23.0876   22.7628  -14.1275 H   0  0  0  0  0  0
  1  2  1  0  0  0
  1 19  1  0  0  0
  2  3  2  0  0  0
  2  8  1  0  0  0
  3  4  1  0  0  0
  3 10  1  0  0  0
  4  5  2  0  0  0
  5  6  1  0  0  0
  5  7  1  0  0  0
  7  8  2  0  0  0
  8  9  1  0  0  0
 10 11  2  0  0  0
 11 12  1  0  0  0
 12 13  2  0  0  0
 12 16  1  0  0  0
 13 14  1  0  0  0
 13 17  1  0  0  0
 14 15  1  0  0  0
 15 16  1  0  0  0
 17 18  3  0  0  0
M  END
>  <CHROM.0>
173.68204561,66.85742599,74.18881791,64.79713365,-29.98600797,-56.64874722
-156.77281093,-159.40860963

>  <CHROM.1>
-8.82892212,162.19509551,-8.58154103,-21.25620204,22.66369192,-12.66867826
1.72980517,-0.46877806,0.38797868

>  <Name>
F0777-2196

>  <RI>
3.63994e+07

>  <Rbt.Current_Directory>
/home/adria/Escritorio/rDock_CMTR_LC/2pxcA_model/inputs_sah

>  <Rbt.Executable>
rbdock ($Id: //depot/dev/client3/rdock/2013.1/src/exe/rbdock.cxx#4 $)

>  <Rbt.Library>
libRbt.so (2013.1, Build901 2013/11/27)

>  <Rbt.Parameter_File>
/home/adria/Escritorio/rDock_2013.1_src/data/scripts/dock.prm

>  <Rbt.Receptor>
sah_rdock.prm

>  <SCORE>
-29.1414

>  <SCORE.INTER>
-11.3984

>  <SCORE.INTER.CONST>
1

>  <SCORE.INTER.POLAR>
-0.272374

>  <SCORE.INTER.REPUL>
0.344789

>  <SCORE.INTER.ROT>
2

>  <SCORE.INTER.VDW>
-19.5963

>  <SCORE.INTER.norm>
-0.633245

>  <SCORE.INTRA>
-10.7437

>  <SCORE.INTRA.DIHEDRAL>
-30.7261

>  <SCORE.INTRA.DIHEDRAL.0>
32.6986

>  <SCORE.INTRA.POLAR>
0.927915

>  <SCORE.INTRA.POLAR.0>
-0.927915

>  <SCORE.INTRA.REPUL>
0

>  <SCORE.INTRA.REPUL.0>
0

>  <SCORE.INTRA.VDW>
1.46445

>  <SCORE.INTRA.VDW.0>
-0.101679

>  <SCORE.INTRA.norm>
-0.59687

>  <SCORE.RESTR>
0

>  <SCORE.RESTR.CAVITY>
0

>  <SCORE.RESTR.norm>
0

>  <SCORE.SYSTEM>
-6.99931

>  <SCORE.SYSTEM.CONST>
0

>  <SCORE.SYSTEM.DIHEDRAL>
6.41137

>  <SCORE.SYSTEM.POLAR>
-3.78849

>  <SCORE.SYSTEM.VDW>
2.67586

>  <SCORE.SYSTEM.norm>
-0.388851

>  <SCORE.heavy>
18

>  <SCORE.norm>
-1.61897

$$$$
F0777-2196
  rDOCK(R)          3D
libRbt.so/2013.1/901 2013/11/27
 19 20  0  0  0  0  0  0  0  0999 V2000
  -16.3007   20.0081  -15.9671 O   0  0  0  0  0  0
  -15.9534   18.9199  -16.7261 C   0  0  0  0  0  0
  -16.7091   17.7381  -16.7065 C   0  0  0  0  0  0
  -16.3294   16.6467  -17.4944 C   0  0  0  0  0  0
  -15.1872   16.7365  -18.2882 C   0  0  0  0  0  0
  -14.7097   15.3863  -19.2421 Cl  0  0  0  0  0  0
  -14.4239   17.9012  -18.3101 C   0  0  0  0  0  0
  -14.8103   18.9938  -17.5313 C   0  0  0  0  0  0
  -13.8358   20.4184  -17.5862 Cl  0  0  0  0  0  0
  -17.9056   17.5769  -15.8521 C   0  0  0  0  0  0
  -18.1523   18.3984  -14.8782 N   0  0  0  0  0  0
  -19.2791   18.1552  -14.1405 C   0  0  0  0  0  0
  -19.7457   18.7855  -13.0510 C   0  0  0  0  0  0
  -20.9705   18.1216  -12.5074 C   0  0  0  0  0  0
  -21.3764   17.1755  -13.6347 C   0  0  0  0  0  0
  -20.1156   16.9503  -14.4654 C   0  0  0  0  0  0
  -19.1649   19.9274  -12.4469 C   0  0  0  0  0  0
  -18.7138   20.8870  -11.9791 N   0  0  0  0  0  0
  -17.0270   19.7382  -15.3611 H   0  0  0  0  0  0
  1  2  1  0  0  0
  1 19  1  0  0  0
  2  3  2  0  0  0
  2  8  1  0  0  0
  3  4  1  0  0  0
  3 10  1  0  0  0
  4  5  2  0  0  0
  5  6  1  0  0  0
  5  7  1  0  0  0
  7  8  2  0  0  0
  8  9  1  0  0  0
 10 11  2  0  0  0
 11 12  1  0  0  0
 12 13  2  0  0  0
 12 16  1  0  0  0
 13 14  1  0  0  0
 13 17  1  0  0  0
 14 15  1  0  0  0
 15 16  1  0  0  0
 17 18  3  0  0  0
M  END
>  <CHROM.0>
-176.85304077,66.79009110,-9.57108096,-61.29138092,-31.01921907,59.26175686
-156.29269368,-163.36140345

>  <CHROM.1>
8.74867958,-14.87365356,176.37335772,-16.95775914,18.22442803,-16.01613009
-0.49271612,0.63210787,0.54693700

>  <Name>
F0777-2196

>  <RI>
3.63994e+07

>  <Rbt.Current_Directory>
/home/adria/Escritorio/rDock_CMTR_LC/2pxcA_model/inputs_sah

>  <Rbt.Executable>
rbdock ($Id: //depot/dev/client3/rdock/2013.1/src/exe/rbdock.cxx#4 $)

>  <Rbt.Library>
libRbt.so (2013.1, Build901 2013/11/27)

>  <Rbt.Parameter_File>
/home/adria/Escritorio/rDock_2013.1_src/data/scripts/dock.prm

>  <Rbt.Receptor>
sah_rdock.prm

>  <SCORE>
-32.6214

>  <SCORE.INTER>
-13.6862

>  <SCORE.INTER.CONST>
1

>  <SCORE.INTER.POLAR>
0

>  <SCORE.INTER.REPUL>
0.235354

>  <SCORE.INTER.ROT>
2

>  <SCORE.INTER.VDW>
-22.263

>  <SCORE.INTER.norm>
-0.760345

>  <SCORE.INTRA>
-12.3551

>  <SCORE.INTRA.DIHEDRAL>
-31.5442

>  <SCORE.INTRA.DIHEDRAL.0>
32.6986

>  <SCORE.INTRA.POLAR>
0.0176474

>  <SCORE.INTRA.POLAR.0>
-0.927915

>  <SCORE.INTRA.REPUL>
0

>  <SCORE.INTRA.REPUL.0>
0

>  <SCORE.INTRA.VDW>
3.35698

>  <SCORE.INTRA.VDW.0>
-0.101679

>  <SCORE.INTRA.norm>
-0.686396

>  <SCORE.RESTR>
0

>  <SCORE.RESTR.CAVITY>
0

>  <SCORE.RESTR.norm>
0

>  <SCORE.SYSTEM>
-6.58007

>  <SCORE.SYSTEM.CONST>
0

>  <SCORE.SYSTEM.DIHEDRAL>
8.68123

>  <SCORE.SYSTEM.POLAR>
-4.32388

>  <SCORE.SYSTEM.VDW>
3.7805

>  <SCORE.SYSTEM.norm>
-0.365559

>  <SCORE.heavy>
18

>  <SCORE.norm>
-1.8123

$$$$
F0777-2196
  rDOCK(R)          3D
libRbt.so/2013.1/901 2013/11/27
 19 20  0  0  0  0  0  0  0  0999 V2000
  -20.0440   24.2198  -11.6937 O   0  0  0  0  0  0
  -21.1116   23.6352  -11.0617 C   0  0  0  0  0  0
  -21.4547   22.2936  -11.2863 C   0  0  0  0  0  0
  -22.5482   21.7263  -10.6240 C   0  0  0  0  0  0
  -23.3029   22.5071   -9.7502 C   0  0  0  0  0  0
  -24.6599   21.8139   -8.9510 Cl  0  0  0  0  0  0
  -22.9775   23.8424   -9.5250 C   0  0  0  0  0  0
  -21.8791   24.4044  -10.1786 C   0  0  0  0  0  0
  -21.5104   26.0635   -9.8726 Cl  0  0  0  0  0  0
  -20.7118   21.4336  -12.2330 C   0  0  0  0  0  0
  -19.9824   21.9455  -13.1764 N   0  0  0  0  0  0
  -19.3446   21.0636  -14.0063 C   0  0  0  0  0  0
  -19.1838   19.7361  -13.8894 C   0  0  0  0  0  0
  -18.3305   19.1815  -14.9853 C   0  0  0  0  0  0
  -18.2668   20.3328  -15.9858 C   0  0  0  0  0  0
  -18.5888   21.5956  -15.1907 C   0  0  0  0  0  0
  -19.7206   18.9282  -12.8573 C   0  0  0  0  0  0
  -20.1961   18.2618  -12.0369 N   0  0  0  0  0  0
  -19.5511   23.5167  -12.1736 H   0  0  0  0  0  0
  1  2  1  0  0  0
  1 19  1  0  0  0
  2  3  2  0  0  0
  2  8  1  0  0  0
  3  4  1  0  0  0
  3 10  1  0  0  0
  4  5  2  0  0  0
  5  6  1  0  0  0
  5  7  1  0  0  0
  7  8  2  0  0  0
  8  9  1  0  0  0
 10 11  2  0  0  0
 11 12  1  0  0  0
 12 13  2  0  0  0
 12 16  1  0  0  0
 13 14  1  0  0  0
 13 17  1  0  0  0
 14 15  1  0  0  0
 15 16  1  0  0  0
 17 18  3  0  0  0
M  END
>  <CHROM.0>
-177.80409747,-166.78912084,-167.39846183,63.40804396,-30.09599438,-61.09106117
82.96073829,-158.63852075

>  <CHROM.1>
-7.97775619,-20.61996201,-11.28525644,-21.09277026,22.17301961,-11.68889567
-2.41064931,-0.74920182,-2.88332352

>  <Name>
F0777-2196

>  <RI>
3.63994e+07

>  <Rbt.Current_Directory>
/home/adria/Escritorio/rDock_CMTR_LC/2pxcA_model/inputs_sah

>  <Rbt.Executable>
rbdock ($Id: //depot/dev/client3/rdock/2013.1/src/exe/rbdock.cxx#4 $)

>  <Rbt.Library>
libRbt.so (2013.1, Build901 2013/11/27)

>  <Rbt.Parameter_File>
/home/adria/Escritorio/rDock_2013.1_src/data/scripts/dock.prm

>  <Rbt.Receptor>
sah_rdock.prm

>  <SCORE>
-31.8758

>  <SCORE.INTER>
-13.0497

>  <SCORE.INTER.CONST>
1

>  <SCORE.INTER.POLAR>
-0.925302

>  <SCORE.INTER.REPUL>
0

>  <SCORE.INTER.ROT>
2

>  <SCORE.INTER.VDW>
-17.3037

>  <SCORE.INTER.norm>
-0.724984

>  <SCORE.INTRA>
-13.058

>  <SCORE.INTRA.DIHEDRAL>
-29.797

>  <SCORE.INTRA.DIHEDRAL.0>
32.6986

>  <SCORE.INTRA.POLAR>
0.190525

>  <SCORE.INTRA.POLAR.0>
-0.927915

>  <SCORE.INTRA.REPUL>
0

>  <SCORE.INTRA.REPUL.0>
0

>  <SCORE.INTRA.VDW>
1.19276

>  <SCORE.INTRA.VDW.0>
-0.101679

>  <SCORE.INTRA.norm>
-0.725443

>  <SCORE.RESTR>
0

>  <SCORE.RESTR.CAVITY>
0

>  <SCORE.RESTR.norm>
0

>  <SCORE.SYSTEM>
-5.76811

>  <SCORE.SYSTEM.CONST>
0

>  <SCORE.SYSTEM.DIHEDRAL>
6.65956

>  <SCORE.SYSTEM.POLAR>
-3.61228

>  <SCORE.SYSTEM.VDW>
3.18386

>  <SCORE.SYSTEM.norm>
-0.320451

>  <SCORE.heavy>
18

>  <SCORE.norm>
-1.77088

$$$$
F0777-2196
  rDOCK(R)          3D
libRbt.so/2013.1/901 2013/11/27
 19 20  0  0  0  0  0  0  0  0999 V2000
  -22.4092   23.4487  -10.3353 O   0  0  0  0  0  0
  -21.7415   22.4157  -10.9420 C   0  0  0  0  0  0
  -22.2675   21.1154  -10.9698 C   0  0  0  0  0  0
  -21.5625   20.0842  -11.5990 C   0  0  0  0  0  0
  -20.3274   20.3546  -12.1858 C   0  0  0  0  0  0
  -19.4516   19.0812  -12.9423 Cl  0  0  0  0  0  0
  -19.7907   21.6394  -12.1577 C   0  0  0  0  0  0
  -20.5006   22.6702  -11.5387 C   0  0  0  0  0  0
  -19.7994   24.2482  -11.5249 Cl  0  0  0  0  0  0
  -23.5536   20.7672  -10.3279 C   0  0  0  0  0  0
  -24.3336   21.6843   -9.8434 N   0  0  0  0  0  0
  -25.4955   21.2568   -9.2601 C   0  0  0  0  0  0
  -25.9642   20.0104   -9.0907 C   0  0  0  0  0  0
  -27.3319   20.0089   -8.4858 C   0  0  0  0  0  0
  -27.4937   21.4475   -8.0009 C   0  0  0  0  0  0
  -26.5055   22.2769   -8.8170 C   0  0  0  0  0  0
  -25.2870   18.8190   -9.4490 C   0  0  0  0  0  0
  -24.7142   17.8439   -9.7024 N   0  0  0  0  0  0
  -23.2534   23.0958   -9.9741 H   0  0  0  0  0  0
  1  2  1  0  0  0
  1 19  1  0  0  0
  2  3  2  0  0  0
  2  8  1  0  0  0
  3  4  1  0  0  0
  3 10  1  0  0  0
  4  5  2  0  0  0
  5  6  1  0  0  0
  5  7  1  0  0  0
  7  8  2  0  0  0
  8  9  1  0  0  0
 10 11  2  0  0  0
 11 12  1  0  0  0
 12 13  2  0  0  0
 12 16  1  0  0  0
 13 14  1  0  0  0
 13 17  1  0  0  0
 14 15  1  0  0  0
 15 16  1  0  0  0
 17 18  3  0  0  0
M  END
>  <CHROM.0>
-62.06710760,66.11746501,-11.52302818,64.78295808,-30.81887099,177.77241221
81.82993126,-163.08928655

>  <CHROM.1>
-0.47230798,8.25435958,0.83941646,-22.71869319,21.18909233,-10.66132639,0.07033484
0.48658286,0.17816037

>  <Name>
F0777-2196

>  <RI>
3.63994e+07

>  <Rbt.Current_Directory>
/home/adria/Escritorio/rDock_CMTR_LC/2pxcA_model/inputs_sah

>  <Rbt.Executable>
rbdock ($Id: //depot/dev/client3/rdock/2013.1/src/exe/rbdock.cxx#4 $)

>  <Rbt.Library>
libRbt.so (2013.1, Build901 2013/11/27)

>  <Rbt.Parameter_File>
/home/adria/Escritorio/rDock_2013.1_src/data/scripts/dock.prm

>  <Rbt.Receptor>
sah_rdock.prm

>  <SCORE>
-21.9969

>  <SCORE.INTER>
-2.38193

>  <SCORE.INTER.CONST>
1

>  <SCORE.INTER.POLAR>
0

>  <SCORE.INTER.REPUL>
0

>  <SCORE.INTER.ROT>
2

>  <SCORE.INTER.VDW>
-9.78193

>  <SCORE.INTER.norm>
-0.132329

>  <SCORE.INTRA>
-14.6252

>  <SCORE.INTRA.DIHEDRAL>
-32.1455

>  <SCORE.INTRA.DIHEDRAL.0>
32.6986

>  <SCORE.INTRA.POLAR>
0.00350562

>  <SCORE.INTRA.POLAR.0>
-0.927915

>  <SCORE.INTRA.REPUL>
0

>  <SCORE.INTRA.REPUL.0>
0

>  <SCORE.INTRA.VDW>
1.43561

>  <SCORE.INTRA.VDW.0>
-0.101679

>  <SCORE.INTRA.norm>
-0.812512

>  <SCORE.RESTR>
1.9133

>  <SCORE.RESTR.CAVITY>
1.9133

>  <SCORE.RESTR.norm>
0.106295

>  <SCORE.SYSTEM>
-6.90306

>  <SCORE.SYSTEM.CONST>
0

>  <SCORE.SYSTEM.DIHEDRAL>
8.51595

>  <SCORE.SYSTEM.POLAR>
-4.19809

>  <SCORE.SYSTEM.VDW>
3.11247

>  <SCORE.SYSTEM.norm>
-0.383503

>  <SCORE.heavy>
18

>  <SCORE.norm>
-1.22205

$$$$
F0777-2196
  rDOCK(R)          3D
libRbt.so/2013.1/901 2013/11/27
 19 20  0  0  0  0  0  0  0  0999 V2000
  -18.6375   22.0156  -14.9828 O   0  0  0  0  0  0
  -19.1816   21.0678  -14.1542 C   0  0  0  0  0  0
  -18.7257   19.7411  -14.1550 C   0  0  0  0  0  0
  -19.3001   18.7989  -13.2956 C   0  0  0  0  0  0
  -20.3380   19.1841  -12.4487 C   0  0  0  0  0  0
  -21.0575   18.0196  -11.4060 Cl  0  0  0  0  0  0
  -20.8050   20.4961  -12.4443 C   0  0  0  0  0  0
  -20.2233   21.4382  -13.2950 C   0  0  0  0  0  0
  -20.8325   23.0537  -13.2594 Cl  0  0  0  0  0  0
  -17.6556   19.2716  -15.0617 C   0  0  0  0  0  0
  -17.4139   18.0063  -15.2186 N   0  0  0  0  0  0
  -16.3953   17.6768  -16.0712 C   0  0  0  0  0  0
  -15.5870   18.4702  -16.7916 C   0  0  0  0  0  0
  -14.6702   17.6789  -17.6691 C   0  0  0  0  0  0
  -14.8152   16.2599  -17.1248 C   0  0  0  0  0  0
  -16.1533   16.2289  -16.3905 C   0  0  0  0  0  0
  -15.5873   19.8865  -16.7687 C   0  0  0  0  0  0
  -15.5589   21.0439  -16.7169 N   0  0  0  0  0  0
  -18.1928   21.5510  -15.7272 H   0  0  0  0  0  0
  1  2  1  0  0  0
  1 19  1  0  0  0
  2  3  2  0  0  0
  2  8  1  0  0  0
  3  4  1  0  0  0
  3 10  1  0  0  0
  4  5  2  0  0  0
  5  6  1  0  0  0
  5  7  1  0  0  0
  7  8  2  0  0  0
  8  9  1  0  0  0
 10 11  2  0  0  0
 11 12  1  0  0  0
 12 13  2  0  0  0
 12 16  1  0  0  0
 13 14  1  0  0  0
 13 17  1  0  0  0
 14 15  1  0  0  0
 15 16  1  0  0  0
 17 18  3  0  0  0
M  END
>  <CHROM.0>
-61.16699487,-74.94046157,-8.59789909,64.16230625,-30.29022241,-57.74698679
-157.34747405,-161.90436369

>  <CHROM.1>
20.83329514,-167.51276195,-0.14402349,-18.38749711,19.54304649,-14.48329190
-2.87869186,-0.73941393,2.91271402

>  <Name>
F0777-2196

>  <RI>
3.63994e+07

>  <Rbt.Current_Directory>
/home/adria/Escritorio/rDock_CMTR_LC/2pxcA_model/inputs_sah

>  <Rbt.Executable>
rbdock ($Id: //depot/dev/client3/rdock/2013.1/src/exe/rbdock.cxx#4 $)

>  <Rbt.Library>
libRbt.so (2013.1, Build901 2013/11/27)

>  <Rbt.Parameter_File>
/home/adria/Escritorio/rDock_2013.1_src/data/scripts/dock.prm

>  <Rbt.Receptor>
sah_rdock.prm

>  <SCORE>
-33.1896

>  <SCORE.INTER>
-14.4224

>  <SCORE.INTER.CONST>
1

>  <SCORE.INTER.POLAR>
-0.191675

>  <SCORE.INTER.REPUL>
0

>  <SCORE.INTER.ROT>
2

>  <SCORE.INTER.VDW>
-21.1707

>  <SCORE.INTER.norm>
-0.801245

>  <SCORE.INTRA>
-11.1427

>  <SCORE.INTRA.DIHEDRAL>
-31.3017

>  <SCORE.INTRA.DIHEDRAL.0>
32.6986

>  <SCORE.INTRA.POLAR>
0.927915

>  <SCORE.INTRA.POLAR.0>
-0.927915

>  <SCORE.INTRA.REPUL>
0

>  <SCORE.INTRA.REPUL.0>
0

>  <SCORE.INTRA.VDW>
1.35325

>  <SCORE.INTRA.VDW.0>
-0.101679

>  <SCORE.INTRA.norm>
-0.619038

>  <SCORE.RESTR>
0

>  <SCORE.RESTR.CAVITY>
0

>  <SCORE.RESTR.norm>
0

>  <SCORE.SYSTEM>
-7.62451

>  <SCORE.SYSTEM.CONST>
0

>  <SCORE.SYSTEM.DIHEDRAL>
9.70458

>  <SCORE.SYSTEM.POLAR>
-4.70873

>  <SCORE.SYSTEM.REPUL>
0.0418151

>  <SCORE.SYSTEM.VDW>
3.3238

>  <SCORE.SYSTEM.norm>
-0.423584

>  <SCORE.heavy>
18

>  <SCORE.norm>
-1.84387

$$$$
F0777-2196
  rDOCK(R)          3D
libRbt.so/2013.1/901 2013/11/27
 19 20  0  0  0  0  0  0  0  0999 V2000
  -19.3120   17.3314  -13.3791 O   0  0  0  0  0  0
  -19.5543   18.6794  -13.3065 C   0  0  0  0  0  0
  -18.8142   19.6014  -14.0618 C   0  0  0  0  0  0
  -19.0879   20.9697  -13.9669 C   0  0  0  0  0  0
  -20.0912   21.4118  -13.1062 C   0  0  0  0  0  0
  -20.4137   23.0969  -12.9751 Cl  0  0  0  0  0  0
  -20.8273   20.5071  -12.3450 C   0  0  0  0  0  0
  -20.5604   19.1406  -12.4489 C   0  0  0  0  0  0
  -21.4950   18.0527  -11.4871 Cl  0  0  0  0  0  0
  -17.7133   19.1884  -14.9589 C   0  0  0  0  0  0
  -16.8779   20.0561  -15.4421 N   0  0  0  0  0  0
  -15.9021   19.5731  -16.2713 C   0  0  0  0  0  0
  -15.6654   18.3163  -16.6792 C   0  0  0  0  0  0
  -14.4259   18.2268  -17.5112 C   0  0  0  0  0  0
  -14.1198   19.6884  -17.8284 C   0  0  0  0  0  0
  -14.8272   20.5066  -16.7511 C   0  0  0  0  0  0
  -16.4554   17.1841  -16.3628 C   0  0  0  0  0  0
  -17.1264   16.2659  -16.1394 N   0  0  0  0  0  0
  -18.7610   17.1630  -14.1765 H   0  0  0  0  0  0
  1  2  1  0  0  0
  1 19  1  0  0  0
  2  3  2  0  0  0
  2  8  1  0  0  0
  3  4  1  0  0  0
  3 10  1  0  0  0
  4  5  2  0  0  0
  5  6  1  0  0  0
  5  7  1  0  0  0
  7  8  2  0  0  0
  8  9  1  0  0  0
 10 11  2  0  0  0
 11 12  1  0  0  0
 12 13  2  0  0  0
 12 16  1  0  0  0
 13 14  1  0  0  0
 13 17  1  0  0  0
 14 15  1  0  0  0
 15 16  1  0  0  0
 17 18  3  0  0  0
M  END
>  <CHROM.0>
-61.16820101,-72.84107863,-10.17489730,62.00006338,-31.37630355,63.95442374
83.36652621,-160.47252223

>  <CHROM.1>
-15.03145669,-166.35446531,0.23018728,-18.40543949,19.49142448,-14.34829335
2.96170183,0.69446526,-0.01779033

>  <Name>
F0777-2196

>  <RI>
3.63994e+07

>  <Rbt.Current_Directory>
/home/adria/Escritorio/rDock_CMTR_LC/2pxcA_model/inputs_sah

>  <Rbt.Executable>
rbdock ($Id: //depot/dev/client3/rdock/2013.1/src/exe/rbdock.cxx#4 $)

>  <Rbt.Library>
libRbt.so (2013.1, Build901 2013/11/27)

>  <Rbt.Parameter_File>
/home/adria/Escritorio/rDock_2013.1_src/data/scripts/dock.prm

>  <Rbt.Receptor>
sah_rdock.prm

>  <SCORE>
-36.0085

>  <SCORE.INTER>
-17.5553

>  <SCORE.INTER.CONST>
1

>  <SCORE.INTER.POLAR>
-0.824621

>  <SCORE.INTER.REPUL>
0

>  <SCORE.INTER.ROT>
2

>  <SCORE.INTER.VDW>
-22.1516

>  <SCORE.INTER.norm>
-0.975295

>  <SCORE.INTRA>
-11.1362

>  <SCORE.INTRA.DIHEDRAL>
-31.4658

>  <SCORE.INTRA.DIHEDRAL.0>
32.6986

>  <SCORE.INTRA.POLAR>
0.927915

>  <SCORE.INTRA.POLAR.0>
-0.927915

>  <SCORE.INTRA.REPUL>
0

>  <SCORE.INTRA.REPUL.0>
0

>  <SCORE.INTRA.VDW>
1.44176

>  <SCORE.INTRA.VDW.0>
-0.101679

>  <SCORE.INTRA.norm>
-0.61868

>  <SCORE.RESTR>
0

>  <SCORE.RESTR.CAVITY>
0

>  <SCORE.RESTR.norm>
0

>  <SCORE.SYSTEM>
-7.3169

>  <SCORE.SYSTEM.CONST>
0

>  <SCORE.SYSTEM.DIHEDRAL>
9.26369

>  <SCORE.SYSTEM.POLAR>
-4.58235

>  <SCORE.SYSTEM.REPUL>
0.0382505

>  <SCORE.SYSTEM.VDW>
3.44

>  <SCORE.SYSTEM.norm>
-0.406494

>  <SCORE.heavy>
18

>  <SCORE.norm>
-2.00047

$$$$
F0777-2196
  rDOCK(R)          3D
libRbt.so/2013.1/901 2013/11/27
 19 20  0  0  0  0  0  0  0  0999 V2000
  -19.1967   22.4806  -15.0319 O   0  0  0  0  0  0
  -19.6552   21.2643  -14.5944 C   0  0  0  0  0  0
  -20.1815   21.0972  -13.3048 C   0  0  0  0  0  0
  -20.6433   19.8439  -12.8899 C   0  0  0  0  0  0
  -20.5637   18.7592  -13.7616 C   0  0  0  0  0  0
  -21.1137   17.2133  -13.2433 Cl  0  0  0  0  0  0
  -20.0357   18.9103  -15.0414 C   0  0  0  0  0  0
  -19.5852   20.1644  -15.4581 C   0  0  0  0  0  0
  -18.9365   20.3087  -17.0520 Cl  0  0  0  0  0  0
  -20.2514   22.2056  -12.3279 C   0  0  0  0  0  0
  -20.8528   23.3189  -12.6157 N   0  0  0  0  0  0
  -20.8516   24.2857  -11.6470 C   0  0  0  0  0  0
  -21.5639   25.4204  -11.5642 C   0  0  0  0  0  0
  -21.1724   26.2362  -10.3735 C   0  0  0  0  0  0
  -20.3357   25.2604   -9.5498 C   0  0  0  0  0  0
  -19.8510   24.1951  -10.5299 C   0  0  0  0  0  0
  -22.5562   25.8400  -12.4837 C   0  0  0  0  0  0
  -23.3981   26.1613  -13.2126 N   0  0  0  0  0  0
  -18.4475   22.3202  -15.6489 H   0  0  0  0  0  0
  1  2  1  0  0  0
  1 19  1  0  0  0
  2  3  2  0  0  0
  2  8  1  0  0  0
  3  4  1  0  0  0
  3 10  1  0  0  0
  4  5  2  0  0  0
  5  6  1  0  0  0
  5  7  1  0  0  0
  7  8  2  0  0  0
  8  9  1  0  0  0
 10 11  2  0  0  0
 11 12  1  0  0  0
 12 13  2  0  0  0
 12 16  1  0  0  0
 13 14  1  0  0  0
 13 17  1  0  0  0
 14 15  1  0  0  0
 15 16  1  0  0  0
 17 18  3  0  0  0
M  END
>  <CHROM.0>
-61.02201040,-69.73805703,72.60130416,63.24399837,168.47195936,-175.47842904
-156.33797983,-161.39636522

>  <CHROM.1>
147.17293755,55.42709124,-167.50688799,-20.48950583,21.85572495,-13.36762495
-0.98528969,1.24154537,-0.04942009

>  <Name>
F0777-2196

>  <RI>
3.63994e+07

>  <Rbt.Current_Directory>
/home/adria/Escritorio/rDock_CMTR_LC/2pxcA_model/inputs_sah

>  <Rbt.Executable>
rbdock ($Id: //depot/dev/client3/rdock/2013.1/src/exe/rbdock.cxx#4 $)

>  <Rbt.Library>
libRbt.so (2013.1, Build901 2013/11/27)

>  <Rbt.Parameter_File>
/home/adria/Escritorio/rDock_2013.1_src/data/scripts/dock.prm

>  <Rbt.Receptor>
sah_rdock.prm

>  <SCORE>
-22.8614

>  <SCORE.INTER>
-15.8135

>  <SCORE.INTER.CONST>
1

>  <SCORE.INTER.POLAR>
-0.361606

>  <SCORE.INTER.REPUL>
0

>  <SCORE.INTER.ROT>
2

>  <SCORE.INTER.VDW>
-21.984

>  <SCORE.INTER.norm>
-0.878527

>  <SCORE.INTRA>
-3.99186

>  <SCORE.INTRA.DIHEDRAL>
-19.2662

>  <SCORE.INTRA.DIHEDRAL.0>
32.6986

>  <SCORE.INTRA.POLAR>
0.927915

>  <SCORE.INTRA.POLAR.0>
-0.927915

>  <SCORE.INTRA.REPUL>
0

>  <SCORE.INTRA.REPUL.0>
0

>  <SCORE.INTRA.VDW>
2.48633

>  <SCORE.INTRA.VDW.0>
-0.101679

>  <SCORE.INTRA.norm>
-0.22177

>  <SCORE.RESTR>
0

>  <SCORE.RESTR.CAVITY>
0

>  <SCORE.RESTR.norm>
0

>  <SCORE.SYSTEM>
-3.05609

>  <SCORE.SYSTEM.CONST>
0

>  <SCORE.SYSTEM.DIHEDRAL>
3.28152

>  <SCORE.SYSTEM.POLAR>
-4.00724

>  <SCORE.SYSTEM.REPUL>
0.0321978

>  <SCORE.SYSTEM.VDW>
8.76678

>  <SCORE.SYSTEM.norm>
-0.169783

>  <SCORE.heavy>
18

>  <SCORE.norm>
-1.27008

$$$$
F0777-2196
  rDOCK(R)          3D
libRbt.so/2013.1/901 2013/11/27
 19 20  0  0  0  0  0  0  0  0999 V2000
  -23.1139   23.4036  -13.5412 O   0  0  0  0  0  0
  -22.1829   23.9682  -12.7073 C   0  0  0  0  0  0
  -21.0403   23.2650  -12.2973 C   0  0  0  0  0  0
  -20.1082   23.8704  -11.4481 C   0  0  0  0  0  0
  -20.3298   25.1718  -11.0008 C   0  0  0  0  0  0
  -19.1927   25.9086   -9.9402 Cl  0  0  0  0  0  0
  -21.4643   25.8774  -11.3941 C   0  0  0  0  0  0
  -22.3884   25.2757  -12.2505 C   0  0  0  0  0  0
  -23.7821   26.1845  -12.7131 Cl  0  0  0  0  0  0
  -20.7783   21.8692  -12.7104 C   0  0  0  0  0  0
  -21.6763   21.1737  -13.3381 N   0  0  0  0  0  0
  -21.3389   19.8885  -13.6659 C   0  0  0  0  0  0
  -20.1677   19.2465  -13.5320 C   0  0  0  0  0  0
  -20.2191   17.8701  -14.1145 C   0  0  0  0  0  0
  -21.7135   17.6454  -14.3311 C   0  0  0  0  0  0
  -22.3406   19.0359  -14.3918 C   0  0  0  0  0  0
  -18.9976   19.7809  -12.9390 C   0  0  0  0  0  0
  -18.0542   20.2033  -12.4148 N   0  0  0  0  0  0
  -23.4277   24.0983  -14.1629 H   0  0  0  0  0  0
  1  2  1  0  0  0
  1 19  1  0  0  0
  2  3  2  0  0  0
  2  8  1  0  0  0
  3  4  1  0  0  0
  3 10  1  0  0  0
  4  5  2  0  0  0
  5  6  1  0  0  0
  5  7  1  0  0  0
  7  8  2  0  0  0
  8  9  1  0  0  0
 10 11  2  0  0  0
 11 12  1  0  0  0
 12 13  2  0  0  0
 12 16  1  0  0  0
 13 14  1  0  0  0
 13 17  1  0  0  0
 14 15  1  0  0  0
 15 16  1  0  0  0
 17 18  3  0  0  0
M  END
>  <CHROM.0>
-66.39403276,-76.65754482,-43.39745473,63.08261534,-30.57955554,61.04274884
83.26210781,-161.86624581

>  <CHROM.1>
-141.76884796,-8.64695596,-5.85111995,-21.14863692,22.77710800,-12.52106942
1.69235838,-0.46959149,0.38371721

>  <Name>
F0777-2196

>  <RI>
3.63994e+07

>  <Rbt.Current_Directory>
/home/adria/Escritorio/rDock_CMTR_LC/2pxcA_model/inputs_sah

>  <Rbt.Executable>
rbdock ($Id: //depot/dev/client3/rdock/2013.1/src/exe/rbdock.cxx#4 $)

>  <Rbt.Library>
libRbt.so (2013.1, Build901 2013/11/27)

>  <Rbt.Parameter_File>
/home/adria/Escritorio/rDock_2013.1_src/data/scripts/dock.prm

>  <Rbt.Receptor>
sah_rdock.prm

>  <SCORE>
-32.2742

>  <SCORE.INTER>
-13.8489

>  <SCORE.INTER.CONST>
1

>  <SCORE.INTER.POLAR>
0

>  <SCORE.INTER.REPUL>
0

>  <SCORE.INTER.ROT>
2

>  <SCORE.INTER.VDW>
-21.2489

>  <SCORE.INTER.norm>
-0.769384

>  <SCORE.INTRA>
-11.0016

>  <SCORE.INTRA.DIHEDRAL>
-30.264

>  <SCORE.INTRA.DIHEDRAL.0>
32.6986

>  <SCORE.INTRA.POLAR>
0.927915

>  <SCORE.INTRA.POLAR.0>
-0.927915

>  <SCORE.INTRA.REPUL>
0

>  <SCORE.INTRA.REPUL.0>
0

>  <SCORE.INTRA.VDW>
0.975536

>  <SCORE.INTRA.VDW.0>
-0.101679

>  <SCORE.INTRA.norm>
-0.611199

>  <SCORE.RESTR>
0

>  <SCORE.RESTR.CAVITY>
0

>  <SCORE.RESTR.norm>
0

>  <SCORE.SYSTEM>
-7.4237

>  <SCORE.SYSTEM.CONST>
0

>  <SCORE.SYSTEM.DIHEDRAL>
7.3063

>  <SCORE.SYSTEM.POLAR>
-4.06629

>  <SCORE.SYSTEM.REPUL>
0.0444026

>  <SCORE.SYSTEM.VDW>
2.52652

>  <SCORE.SYSTEM.norm>
-0.412428

>  <SCORE.heavy>
18

>  <SCORE.norm>
-1.79301

$$$$
F0777-2196
  rDOCK(R)          3D
libRbt.so/2013.1/901 2013/11/27
 19 20  0  0  0  0  0  0  0  0999 V2000
  -18.6896   22.1652  -14.8829 O   0  0  0  0  0  0
  -19.6829   21.2385  -14.6943 C   0  0  0  0  0  0
  -20.7564   21.4779  -13.8234 C   0  0  0  0  0  0
  -21.7548   20.5131  -13.6550 C   0  0  0  0  0  0
  -21.6683   19.3066  -14.3477 C   0  0  0  0  0  0
  -22.8867   18.1122  -14.1248 Cl  0  0  0  0  0  0
  -20.6034   19.0536  -15.2088 C   0  0  0  0  0  0
  -19.6131   20.0221  -15.3842 C   0  0  0  0  0  0
  -18.3093   19.6684  -16.4599 Cl  0  0  0  0  0  0
  -20.8743   22.7237  -13.0349 C   0  0  0  0  0  0
  -20.1671   22.9108  -11.9630 N   0  0  0  0  0  0
  -20.3588   24.0923  -11.2994 C   0  0  0  0  0  0
  -21.1655   25.1235  -11.5959 C   0  0  0  0  0  0
  -20.9850   26.2615  -10.6426 C   0  0  0  0  0  0
  -20.1755   25.6348   -9.5101 C   0  0  0  0  0  0
  -19.4935   24.4091  -10.1128 C   0  0  0  0  0  0
  -22.0727   25.1748  -12.6825 C   0  0  0  0  0  0
  -22.8455   25.1986  -13.5458 N   0  0  0  0  0  0
  -18.3062   22.0236  -15.7777 H   0  0  0  0  0  0
  1  2  1  0  0  0
  1 19  1  0  0  0
  2  3  2  0  0  0
  2  8  1  0  0  0
  3  4  1  0  0  0
  3 10  1  0  0  0
  4  5  2  0  0  0
  5  6  1  0  0  0
  5  7  1  0  0  0
  7  8  2  0  0  0
  8  9  1  0  0  0
 10 11  2  0  0  0
 11 12  1  0  0  0
 12 13  2  0  0  0
 12 16  1  0  0  0
 13 14  1  0  0  0
 13 17  1  0  0  0
 14 15  1  0  0  0
 15 16  1  0  0  0
 17 18  3  0  0  0
M  END
>  <CHROM.0>
-175.95358232,-74.76041637,74.42765919,63.74638311,168.72692726,-61.99563825
-156.10810994,-161.29837184

>  <CHROM.1>
-153.56000080,-77.42757325,-1.13783930,-20.62976572,21.87638583,-13.49001203
-1.51914591,0.45274559,0.58499533

>  <Name>
F0777-2196

>  <RI>
3.63994e+07

>  <Rbt.Current_Directory>
/home/adria/Escritorio/rDock_CMTR_LC/2pxcA_model/inputs_sah

>  <Rbt.Executable>
rbdock ($Id: //depot/dev/client3/rdock/2013.1/src/exe/rbdock.cxx#4 $)

>  <Rbt.Library>
libRbt.so (2013.1, Build901 2013/11/27)

>  <Rbt.Parameter_File>
/home/adria/Escritorio/rDock_2013.1_src/data/scripts/dock.prm

>  <Rbt.Receptor>
sah_rdock.prm

>  <SCORE>
-21.4254

>  <SCORE.INTER>
-13.4602

>  <SCORE.INTER.CONST>
1

>  <SCORE.INTER.POLAR>
-0.616364

>  <SCORE.INTER.REPUL>
0

>  <SCORE.INTER.ROT>
2

>  <SCORE.INTER.VDW>
-18.7646

>  <SCORE.INTER.norm>
-0.747791

>  <SCORE.INTRA>
-5.32174

>  <SCORE.INTRA.DIHEDRAL>
-19.3218

>  <SCORE.INTRA.DIHEDRAL.0>
32.6986

>  <SCORE.INTRA.POLAR>
0.927915

>  <SCORE.INTRA.POLAR.0>
-0.927915

>  <SCORE.INTRA.REPUL>
0

>  <SCORE.INTRA.REPUL.0>
0

>  <SCORE.INTRA.VDW>
1.18426

>  <SCORE.INTRA.VDW.0>
-0.101679

>  <SCORE.INTRA.norm>
-0.295652

>  <SCORE.RESTR>
0

>  <SCORE.RESTR.CAVITY>
0

>  <SCORE.RESTR.norm>
0

>  <SCORE.SYSTEM>
-2.64343

>  <SCORE.SYSTEM.CONST>
0

>  <SCORE.SYSTEM.DIHEDRAL>
4.00851

>  <SCORE.SYSTEM.POLAR>
-4.06808

>  <SCORE.SYSTEM.REPUL>
0.0415266

>  <SCORE.SYSTEM.VDW>
8.97617

>  <SCORE.SYSTEM.norm>
-0.146857

>  <SCORE.heavy>
18

>  <SCORE.norm>
-1.1903

$$$$
F0777-2196
  rDOCK(R)          3D
libRbt.so/2013.1/901 2013/11/27
 19 20  0  0  0  0  0  0  0  0999 V2000
  -19.7662   22.6524  -14.1362 O   0  0  0  0  0  0
  -20.4242   22.0436  -13.0981 C   0  0  0  0  0  0
  -20.3165   20.6641  -12.8671 C   0  0  0  0  0  0
  -20.9984   20.0741  -11.7979 C   0  0  0  0  0  0
  -21.7968   20.8640  -10.9724 C   0  0  0  0  0  0
  -22.6512   20.1340   -9.6694 Cl  0  0  0  0  0  0
  -21.9185   22.2332  -11.1963 C   0  0  0  0  0  0
  -21.2285   22.8226  -12.2574 C   0  0  0  0  0  0
  -21.4074   24.5228  -12.5011 Cl  0  0  0  0  0  0
  -19.5153   19.7754  -13.7365 C   0  0  0  0  0  0
  -18.7414   20.2572  -14.6601 N   0  0  0  0  0  0
  -18.0512   19.3500  -15.4177 C   0  0  0  0  0  0
  -18.0566   18.0086  -15.3689 C   0  0  0  0  0  0
  -17.0703   17.4144  -16.3232 C   0  0  0  0  0  0
  -16.6933   18.5996  -17.2085 C   0  0  0  0  0  0
  -17.0287   19.8494  -16.3985 C   0  0  0  0  0  0
  -18.8651   17.2177  -14.5163 C   0  0  0  0  0  0
  -19.5580   16.5708  -13.8495 N   0  0  0  0  0  0
  -19.2408   21.9674  -14.6078 H   0  0  0  0  0  0
  1  2  1  0  0  0
  1 19  1  0  0  0
  2  3  2  0  0  0
  2  8  1  0  0  0
  3  4  1  0  0  0
  3 10  1  0  0  0
  4  5  2  0  0  0
  5  6  1  0  0  0
  5  7  1  0  0  0
  7  8  2  0  0  0
  8  9  1  0  0  0
 10 11  2  0  0  0
 11 12  1  0  0  0
 12 13  2  0  0  0
 12 16  1  0  0  0
 13 14  1  0  0  0
 13 17  1  0  0  0
 14 15  1  0  0  0
 15 16  1  0  0  0
 17 18  3  0  0  0
M  END
>  <CHROM.0>
-178.16470028,-73.39907443,-168.01339024,63.98474293,-30.13631007,-178.66107096
-156.85107035,-161.60059551

>  <CHROM.1>
-1.45324066,8.54621031,0.86096721,-20.01039486,20.51872621,-13.30222518,-2.72257020
-0.89468968,2.95734931

>  <Name>
F0777-2196

>  <RI>
3.63994e+07

>  <Rbt.Current_Directory>
/home/adria/Escritorio/rDock_CMTR_LC/2pxcA_model/inputs_sah

>  <Rbt.Executable>
rbdock ($Id: //depot/dev/client3/rdock/2013.1/src/exe/rbdock.cxx#4 $)

>  <Rbt.Library>
libRbt.so (2013.1, Build901 2013/11/27)

>  <Rbt.Parameter_File>
/home/adria/Escritorio/rDock_2013.1_src/data/scripts/dock.prm

>  <Rbt.Receptor>
sah_rdock.prm

>  <SCORE>
-34.8069

>  <SCORE.INTER>
-12.9067

>  <SCORE.INTER.CONST>
1

>  <SCORE.INTER.POLAR>
-0.821518

>  <SCORE.INTER.REPUL>
0

>  <SCORE.INTER.ROT>
2

>  <SCORE.INTER.VDW>
-17.5135

>  <SCORE.INTER.norm>
-0.717038

>  <SCORE.INTRA>
-14.622

>  <SCORE.INTRA.DIHEDRAL>
-32.1234

>  <SCORE.INTRA.DIHEDRAL.0>
32.6986

>  <SCORE.INTRA.POLAR>
0.00225006

>  <SCORE.INTRA.POLAR.0>
-0.927915

>  <SCORE.INTRA.REPUL>
0

>  <SCORE.INTRA.REPUL.0>
0

>  <SCORE.INTRA.VDW>
1.43209

>  <SCORE.INTRA.VDW.0>
-0.101679

>  <SCORE.INTRA.norm>
-0.812331

>  <SCORE.RESTR>
0

>  <SCORE.RESTR.CAVITY>
0

>  <SCORE.RESTR.norm>
0

>  <SCORE.SYSTEM>
-7.27829

>  <SCORE.SYSTEM.CONST>
0

>  <SCORE.SYSTEM.DIHEDRAL>
6.5131

>  <SCORE.SYSTEM.POLAR>
-4.00732

>  <SCORE.SYSTEM.REPUL>
0.0392404

>  <SCORE.SYSTEM.VDW>
2.89386

>  <SCORE.SYSTEM.norm>
-0.40435

>  <SCORE.heavy>
18

>  <SCORE.norm>
-1.93372

$$$$
F0777-2196
  rDOCK(R)          3D
libRbt.so/2013.1/901 2013/11/27
 19 20  0  0  0  0  0  0  0  0999 V2000
  -16.9775   16.6580  -16.1101 O   0  0  0  0  0  0
  -16.1882   17.7444  -16.3890 C   0  0  0  0  0  0
  -16.5159   19.0289  -15.9297 C   0  0  0  0  0  0
  -15.6884   20.1159  -16.2294 C   0  0  0  0  0  0
  -14.5436   19.9164  -16.9992 C   0  0  0  0  0  0
  -13.5368   21.2576  -17.3841 Cl  0  0  0  0  0  0
  -14.2118   18.6476  -17.4679 C   0  0  0  0  0  0
  -15.0331   17.5615  -17.1589 C   0  0  0  0  0  0
  -14.5866   16.0056  -17.7605 Cl  0  0  0  0  0  0
  -17.7390   19.3012  -15.1440 C   0  0  0  0  0  0
  -18.1547   20.5144  -14.9456 N   0  0  0  0  0  0
  -19.2904   20.6593  -14.1957 C   0  0  0  0  0  0
  -20.0384   19.7300  -13.5803 C   0  0  0  0  0  0
  -21.2561   20.3261  -12.9491 C   0  0  0  0  0  0
  -20.9645   21.8240  -12.9893 C   0  0  0  0  0  0
  -19.9236   22.0176  -14.0891 C   0  0  0  0  0  0
  -19.7553   18.3430  -13.5322 C   0  0  0  0  0  0
  -19.5000   17.2150  -13.4564 N   0  0  0  0  0  0
  -17.6322   16.9242  -15.4259 H   0  0  0  0  0  0
  1  2  1  0  0  0
  1 19  1  0  0  0
  2  3  2  0  0  0
  2  8  1  0  0  0
  3  4  1  0  0  0
  3 10  1  0  0  0
  4  5  2  0  0  0
  5  6  1  0  0  0
  5  7  1  0  0  0
  7  8  2  0  0  0
  8  9  1  0  0  0
 10 11  2  0  0  0
 11 12  1  0  0  0
 12 13  2  0  0  0
 12 16  1  0  0  0
 13 14  1  0  0  0
 13 17  1  0  0  0
 14 15  1  0  0  0
 15 16  1  0  0  0
 17 18  3  0  0  0
M  END
>  <CHROM.0>
-178.12952654,-73.95517418,-167.37107611,65.05222586,167.95620479,59.75498232
-156.85327285,-163.69210191

>  <CHROM.1>
-11.43751798,-166.84508617,2.50391002,-16.94342881,19.15909493,-15.68260869
0.33245197,-0.56274841,-3.03883641

>  <Name>
F0777-2196

>  <RI>
3.63994e+07

>  <Rbt.Current_Directory>
/home/adria/Escritorio/rDock_CMTR_LC/2pxcA_model/inputs_sah

>  <Rbt.Executable>
rbdock ($Id: //depot/dev/client3/rdock/2013.1/src/exe/rbdock.cxx#4 $)

>  <Rbt.Library>
libRbt.so (2013.1, Build901 2013/11/27)

>  <Rbt.Parameter_File>
/home/adria/Escritorio/rDock_2013.1_src/data/scripts/dock.prm

>  <Rbt.Receptor>
sah_rdock.prm

>  <SCORE>
-30.5339

>  <SCORE.INTER>
-17.106

>  <SCORE.INTER.CONST>
1

>  <SCORE.INTER.POLAR>
-0.824621

>  <SCORE.INTER.REPUL>
0

>  <SCORE.INTER.ROT>
2

>  <SCORE.INTER.VDW>
-21.7023

>  <SCORE.INTER.norm>
-0.950336

>  <SCORE.INTRA>
-11.0319

>  <SCORE.INTRA.DIHEDRAL>
-31.3653

>  <SCORE.INTRA.DIHEDRAL.0>
32.6986

>  <SCORE.INTRA.POLAR>
0.927915

>  <SCORE.INTRA.POLAR.0>
-0.927915

>  <SCORE.INTRA.REPUL>
0

>  <SCORE.INTRA.REPUL.0>
0

>  <SCORE.INTRA.VDW>
1.49584

>  <SCORE.INTRA.VDW.0>
-0.101679

>  <SCORE.INTRA.norm>
-0.612884

>  <SCORE.RESTR>
0

>  <SCORE.RESTR.CAVITY>
0

>  <SCORE.RESTR.norm>
0

>  <SCORE.SYSTEM>
-2.39599

>  <SCORE.SYSTEM.CONST>
0

>  <SCORE.SYSTEM.DIHEDRAL>
3.6799

>  <SCORE.SYSTEM.POLAR>
-3.9344

>  <SCORE.SYSTEM.REPUL>
0.0401965

>  <SCORE.SYSTEM.VDW>
8.94002

>  <SCORE.SYSTEM.norm>
-0.133111

>  <SCORE.heavy>
18

>  <SCORE.norm>
-1.69633

$$$$
F0777-2196
  rDOCK(R)          3D
libRbt.so/2013.1/901 2013/11/27
 19 20  0  0  0  0  0  0  0  0999 V2000
  -19.6909   23.8278  -11.3520 O   0  0  0  0  0  0
  -20.9727   23.5645  -10.9413 C   0  0  0  0  0  0
  -21.5833   22.3252  -11.1851 C   0  0  0  0  0  0
  -22.8914   22.0875  -10.7509 C   0  0  0  0  0  0
  -23.5889   23.0953  -10.0870 C   0  0  0  0  0  0
  -25.2051   22.8087   -9.5707 Cl  0  0  0  0  0  0
  -22.9968   24.3326   -9.8463 C   0  0  0  0  0  0
  -21.6870   24.5648  -10.2707 C   0  0  0  0  0  0
  -20.9904   26.1128   -9.9535 Cl  0  0  0  0  0  0
  -20.9020   21.2373  -11.9197 C   0  0  0  0  0  0
  -21.5726   20.2607  -12.4496 N   0  0  0  0  0  0
  -20.8471   19.2985  -13.0983 C   0  0  0  0  0  0
  -19.5176   19.1661  -13.2281 C   0  0  0  0  0  0
  -19.1579   18.0116  -14.1082 C   0  0  0  0  0  0
  -20.4755   17.2503  -14.2302 C   0  0  0  0  0  0
  -21.5732   18.2604  -13.9058 C   0  0  0  0  0  0
  -18.5436   20.0091  -12.6392 C   0  0  0  0  0  0
  -17.7469   20.6730  -12.1217 N   0  0  0  0  0  0
  -19.3644   23.0464  -11.8525 H   0  0  0  0  0  0
  1  2  1  0  0  0
  1 19  1  0  0  0
  2  3  2  0  0  0
  2  8  1  0  0  0
  3  4  1  0  0  0
  3 10  1  0  0  0
  4  5  2  0  0  0
  5  6  1  0  0  0
  5  7  1  0  0  0
  7  8  2  0  0  0
  8  9  1  0  0  0
 10 11  2  0  0  0
 11 12  1  0  0  0
 12 13  2  0  0  0
 12 16  1  0  0  0
 13 14  1  0  0  0
 13 17  1  0  0  0
 14 15  1  0  0  0
 15 16  1  0  0  0
 17 18  3  0  0  0
M  END
>  <CHROM.0>
-178.37434154,-74.31474960,72.58915321,63.73489217,168.41479421,59.49603835
-156.56703820,-161.02917692

>  <CHROM.1>
3.26818988,-161.03759111,3.40204581,-21.39009346,21.94539076,-11.46794130
-1.97964273,-0.27028064,-2.70004393

>  <Name>
F0777-2196

>  <RI>
3.63994e+07

>  <Rbt.Current_Directory>
/home/adria/Escritorio/rDock_CMTR_LC/2pxcA_model/inputs_sah

>  <Rbt.Executable>
rbdock ($Id: //depot/dev/client3/rdock/2013.1/src/exe/rbdock.cxx#4 $)

>  <Rbt.Library>
libRbt.so (2013.1, Build901 2013/11/27)

>  <Rbt.Parameter_File>
/home/adria/Escritorio/rDock_2013.1_src/data/scripts/dock.prm

>  <Rbt.Receptor>
sah_rdock.prm

>  <SCORE>
-23.0652

>  <SCORE.INTER>
-9.69666

>  <SCORE.INTER.CONST>
1

>  <SCORE.INTER.POLAR>
-0.350538

>  <SCORE.INTER.REPUL>
0

>  <SCORE.INTER.ROT>
2

>  <SCORE.INTER.VDW>
-15.9048

>  <SCORE.INTER.norm>
-0.538703

>  <SCORE.INTRA>
-10.6329

>  <SCORE.INTRA.DIHEDRAL>
-30.7113

>  <SCORE.INTRA.DIHEDRAL.0>
32.6986

>  <SCORE.INTRA.POLAR>
0.927915

>  <SCORE.INTRA.POLAR.0>
-0.927915

>  <SCORE.INTRA.REPUL>
0

>  <SCORE.INTRA.REPUL.0>
0

>  <SCORE.INTRA.VDW>
1.56783

>  <SCORE.INTRA.VDW.0>
-0.101679

>  <SCORE.INTRA.norm>
-0.590718

>  <SCORE.RESTR>
0

>  <SCORE.RESTR.CAVITY>
0

>  <SCORE.RESTR.norm>
0

>  <SCORE.SYSTEM>
-2.73566

>  <SCORE.SYSTEM.CONST>
0

>  <SCORE.SYSTEM.DIHEDRAL>
3.76706

>  <SCORE.SYSTEM.POLAR>
-4.04716

>  <SCORE.SYSTEM.REPUL>
0.0407984

>  <SCORE.SYSTEM.VDW>
8.93716

>  <SCORE.SYSTEM.norm>
-0.151981

>  <SCORE.heavy>
18

>  <SCORE.norm>
-1.2814

$$$$
F0777-2196
  rDOCK(R)          3D
libRbt.so/2013.1/901 2013/11/27
 19 20  0  0  0  0  0  0  0  0999 V2000
  -19.4257   17.3308  -13.3678 O   0  0  0  0  0  0
  -19.6441   18.6813  -13.2703 C   0  0  0  0  0  0
  -18.8791   19.6046  -13.9987 C   0  0  0  0  0  0
  -19.1287   20.9755  -13.8787 C   0  0  0  0  0  0
  -20.1331   21.4186  -13.0199 C   0  0  0  0  0  0
  -20.4262   23.1064  -12.8579 Cl  0  0  0  0  0  0
  -20.8940   20.5125  -12.2852 C   0  0  0  0  0  0
  -20.6509   19.1436  -12.4141 C   0  0  0  0  0  0
  -21.6158   18.0539  -11.4847 Cl  0  0  0  0  0  0
  -17.7761   19.1895  -14.8923 C   0  0  0  0  0  0
  -16.9323   20.0543  -15.3658 N   0  0  0  0  0  0
  -15.9552   19.5697  -16.1926 C   0  0  0  0  0  0
  -15.7234   18.3135  -16.6049 C   0  0  0  0  0  0
  -14.4805   18.2209  -17.4316 C   0  0  0  0  0  0
  -14.1652   19.6822  -17.7410 C   0  0  0  0  0  0
  -14.8732   20.4996  -16.6634 C   0  0  0  0  0  0
  -16.5209   17.1841  -16.2970 C   0  0  0  0  0  0
  -17.1978   16.2686  -16.0807 N   0  0  0  0  0  0
  -20.2891   16.8943  -13.5458 H   0  0  0  0  0  0
  1  2  1  0  0  0
  1 19  1  0  0  0
  2  3  2  0  0  0
  2  8  1  0  0  0
  3  4  1  0  0  0
  3 10  1  0  0  0
  4  5  2  0  0  0
  5  6  1  0  0  0
  5  7  1  0  0  0
  7  8  2  0  0  0
  8  9  1  0  0  0
 10 11  2  0  0  0
 11 12  1  0  0  0
 12 13  2  0  0  0
 12 16  1  0  0  0
 13 14  1  0  0  0
 13 17  1  0  0  0
 14 15  1  0  0  0
 15 16  1  0  0  0
 17 18  3  0  0  0
M  END
>  <CHROM.0>
-58.85197915,-72.87229071,75.96703207,-59.35844139,-30.49934198,64.39501367
-155.76891819,-160.13659318

>  <CHROM.1>
-129.42886996,-167.45414671,0.09519328,-18.47544104,19.49181849,-14.28217056
2.94318634,0.68531432,0.01295440

>  <Name>
F0777-2196

>  <RI>
3.63994e+07

>  <Rbt.Current_Directory>
/home/adria/Escritorio/rDock_CMTR_LC/2pxcA_model/inputs_sah

>  <Rbt.Executable>
rbdock ($Id: //depot/dev/client3/rdock/2013.1/src/exe/rbdock.cxx#4 $)

>  <Rbt.Library>
libRbt.so (2013.1, Build901 2013/11/27)

>  <Rbt.Parameter_File>
/home/adria/Escritorio/rDock_2013.1_src/data/scripts/dock.prm

>  <Rbt.Receptor>
sah_rdock.prm

>  <SCORE>
-35.4422

>  <SCORE.INTER>
-17.3414

>  <SCORE.INTER.CONST>
1

>  <SCORE.INTER.POLAR>
-0.824621

>  <SCORE.INTER.REPUL>
0

>  <SCORE.INTER.ROT>
2

>  <SCORE.INTER.VDW>
-21.9377

>  <SCORE.INTER.norm>
-0.963412

>  <SCORE.INTRA>
-10.4421

>  <SCORE.INTRA.DIHEDRAL>
-29.0143

>  <SCORE.INTRA.DIHEDRAL.0>
32.6986

>  <SCORE.INTRA.POLAR>
0.927915

>  <SCORE.INTRA.POLAR.0>
-0.927915

>  <SCORE.INTRA.REPUL>
0

>  <SCORE.INTRA.REPUL.0>
0

>  <SCORE.INTRA.VDW>
0.910085

>  <SCORE.INTRA.VDW.0>
-0.101679

>  <SCORE.INTRA.norm>
-0.580119

>  <SCORE.RESTR>
0

>  <SCORE.RESTR.CAVITY>
0

>  <SCORE.RESTR.norm>
0

>  <SCORE.SYSTEM>
-7.65868

>  <SCORE.SYSTEM.CONST>
0

>  <SCORE.SYSTEM.DIHEDRAL>
6.76135

>  <SCORE.SYSTEM.POLAR>
-4.15992

>  <SCORE.SYSTEM.REPUL>
0.0383067

>  <SCORE.SYSTEM.VDW>
2.91285

>  <SCORE.SYSTEM.norm>
-0.425482

>  <SCORE.heavy>
18

>  <SCORE.norm>
-1.96901

$$$$
F0777-2196
  rDOCK(R)          3D
libRbt.so/2013.1/901 2013/11/27
 19 20  0  0  0  0  0  0  0  0999 V2000
  -17.2138   18.7240  -16.4567 O   0  0  0  0  0  0
  -17.5389   17.4108  -16.2314 C   0  0  0  0  0  0
  -18.4511   17.0399  -15.2322 C   0  0  0  0  0  0
  -18.7633   15.6917  -15.0294 C   0  0  0  0  0  0
  -18.1511   14.7186  -15.8174 C   0  0  0  0  0  0
  -18.5208   13.0588  -15.5539 Cl  0  0  0  0  0  0
  -17.2376   15.0733  -16.8070 C   0  0  0  0  0  0
  -16.9351   16.4203  -17.0156 C   0  0  0  0  0  0
  -15.7965   16.8175  -18.2518 Cl  0  0  0  0  0  0
  -19.0976   18.0292  -14.3429 C   0  0  0  0  0  0
  -19.8428   17.6542  -13.3488 N   0  0  0  0  0  0
  -20.4040   18.6477  -12.5932 C   0  0  0  0  0  0
  -20.2428   19.9783  -12.6664 C   0  0  0  0  0  0
  -20.9782   20.6877  -11.5743 C   0  0  0  0  0  0
  -21.8917   19.6003  -11.0140 C   0  0  0  0  0  0
  -21.2529   18.2721  -11.4119 C   0  0  0  0  0  0
  -19.4620   20.6626  -13.6300 C   0  0  0  0  0  0
  -18.8584   21.2240  -14.4446 N   0  0  0  0  0  0
  -17.0477   18.8363  -17.4197 H   0  0  0  0  0  0
  1  2  1  0  0  0
  1 19  1  0  0  0
  2  3  2  0  0  0
  2  8  1  0  0  0
  3  4  1  0  0  0
  3 10  1  0  0  0
  4  5  2  0  0  0
  5  6  1  0  0  0
  5  7  1  0  0  0
  7  8  2  0  0  0
  8  9  1  0  0  0
 10 11  2  0  0  0
 11 12  1  0  0  0
 12 13  2  0  0  0
 12 16  1  0  0  0
 13 14  1  0  0  0
 13 17  1  0  0  0
 14 15  1  0  0  0
 15 16  1  0  0  0
 17 18  3  0  0  0
M  END
>  <CHROM.0>
-178.24902811,-72.56263764,72.18318995,66.36351506,-29.90575189,-57.47502495
-156.17393815,-160.86884997

>  <CHROM.1>
-146.44509833,-173.64916179,-4.49744499,-18.65166352,17.35391893,-14.88985040
-0.72210389,0.87085464,0.10673564

>  <Name>
F0777-2196

>  <RI>
3.63994e+07

>  <Rbt.Current_Directory>
/home/adria/Escritorio/rDock_CMTR_LC/2pxcA_model/inputs_sah

>  <Rbt.Executable>
rbdock ($Id: //depot/dev/client3/rdock/2013.1/src/exe/rbdock.cxx#4 $)

>  <Rbt.Library>
libRbt.so (2013.1, Build901 2013/11/27)

>  <Rbt.Parameter_File>
/home/adria/Escritorio/rDock_2013.1_src/data/scripts/dock.prm

>  <Rbt.Receptor>
sah_rdock.prm

>  <SCORE>
-30.8549

>  <SCORE.INTER>
-12.2246

>  <SCORE.INTER.CONST>
1

>  <SCORE.INTER.POLAR>
-0.824621

>  <SCORE.INTER.REPUL>
0

>  <SCORE.INTER.ROT>
2

>  <SCORE.INTER.VDW>
-16.8208

>  <SCORE.INTER.norm>
-0.679142

>  <SCORE.INTRA>
-11.0419

>  <SCORE.INTRA.DIHEDRAL>
-30.9249

>  <SCORE.INTRA.DIHEDRAL.0>
32.6986

>  <SCORE.INTRA.POLAR>
0.927915

>  <SCORE.INTRA.POLAR.0>
-0.927915

>  <SCORE.INTRA.REPUL>
0

>  <SCORE.INTRA.REPUL.0>
0

>  <SCORE.INTRA.VDW>
1.26564

>  <SCORE.INTRA.VDW.0>
-0.101679

>  <SCORE.INTRA.norm>
-0.613439

>  <SCORE.RESTR>
0

>  <SCORE.RESTR.CAVITY>
0

>  <SCORE.RESTR.norm>
0

>  <SCORE.SYSTEM>
-7.58842

>  <SCORE.SYSTEM.CONST>
0

>  <SCORE.SYSTEM.DIHEDRAL>
6.69569

>  <SCORE.SYSTEM.POLAR>
-4.11534

>  <SCORE.SYSTEM.REPUL>
0.0377451

>  <SCORE.SYSTEM.VDW>
2.86715

>  <SCORE.SYSTEM.norm>
-0.421579

>  <SCORE.heavy>
18

>  <SCORE.norm>
-1.71416

$$$$
F0777-2196
  rDOCK(R)          3D
libRbt.so/2013.1/901 2013/11/27
 19 20  0  0  0  0  0  0  0  0999 V2000
  -17.9110   20.4193  -13.6636 O   0  0  0  0  0  0
  -18.9607   19.5376  -13.6209 C   0  0  0  0  0  0
  -19.0061   18.4074  -14.4508 C   0  0  0  0  0  0
  -20.0899   17.5261  -14.3811 C   0  0  0  0  0  0
  -21.1310   17.7862  -13.4915 C   0  0  0  0  0  0
  -22.4734   16.7121  -13.4206 Cl  0  0  0  0  0  0
  -21.1017   18.9092  -12.6683 C   0  0  0  0  0  0
  -20.0139   19.7823  -12.7313 C   0  0  0  0  0  0
  -20.0170   21.1634  -11.6946 Cl  0  0  0  0  0  0
  -17.9477   18.1073  -15.4393 C   0  0  0  0  0  0
  -16.9522   18.9187  -15.6261 N   0  0  0  0  0  0
  -16.0324   18.5544  -16.5718 C   0  0  0  0  0  0
  -14.9535   19.2149  -17.0206 C   0  0  0  0  0  0
  -14.2789   18.4829  -18.1367 C   0  0  0  0  0  0
  -14.9240   17.1005  -18.0791 C   0  0  0  0  0  0
  -16.2530   17.2897  -17.3522 C   0  0  0  0  0  0
  -14.4919   20.4642  -16.5386 C   0  0  0  0  0  0
  -14.0902   21.4651  -16.1141 N   0  0  0  0  0  0
  -17.7359   20.7296  -12.7467 H   0  0  0  0  0  0
  1  2  1  0  0  0
  1 19  1  0  0  0
  2  3  2  0  0  0
  2  8  1  0  0  0
  3  4  1  0  0  0
  3 10  1  0  0  0
  4  5  2  0  0  0
  5  6  1  0  0  0
  5  7  1  0  0  0
  7  8  2  0  0  0
  8  9  1  0  0  0
 10 11  2  0  0  0
 11 12  1  0  0  0
 12 13  2  0  0  0
 12 16  1  0  0  0
 13 14  1  0  0  0
 13 17  1  0  0  0
 14 15  1  0  0  0
 15 16  1  0  0  0
 17 18  3  0  0  0
M  END
>  <CHROM.0>
-59.89620371,-73.35329115,-9.87538123,64.31904991,-30.95386641,-58.51425045
83.28155829,-161.56323875

>  <CHROM.1>
-143.25111470,-3.26136639,176.32725656,-18.31689549,18.90224838,-14.67322031
-2.83509079,-0.53041581,-2.50052950

>  <Name>
F0777-2196

>  <RI>
3.63994e+07

>  <Rbt.Current_Directory>
/home/adria/Escritorio/rDock_CMTR_LC/2pxcA_model/inputs_sah

>  <Rbt.Executable>
rbdock ($Id: //depot/dev/client3/rdock/2013.1/src/exe/rbdock.cxx#4 $)

>  <Rbt.Library>
libRbt.so (2013.1, Build901 2013/11/27)

>  <Rbt.Parameter_File>
/home/adria/Escritorio/rDock_2013.1_src/data/scripts/dock.prm

>  <Rbt.Receptor>
sah_rdock.prm

>  <SCORE>
-30.6301

>  <SCORE.INTER>
-14.1318

>  <SCORE.INTER.CONST>
1

>  <SCORE.INTER.POLAR>
-0.229938

>  <SCORE.INTER.REPUL>
0

>  <SCORE.INTER.ROT>
2

>  <SCORE.INTER.VDW>
-20.75

>  <SCORE.INTER.norm>
-0.785101

>  <SCORE.INTRA>
-9.1446

>  <SCORE.INTRA.DIHEDRAL>
-30.7742

>  <SCORE.INTRA.DIHEDRAL.0>
32.6986

>  <SCORE.INTRA.POLAR>
0.927915

>  <SCORE.INTRA.POLAR.0>
-0.927915

>  <SCORE.INTRA.REPUL>
0

>  <SCORE.INTRA.REPUL.0>
0

>  <SCORE.INTRA.VDW>
3.08761

>  <SCORE.INTRA.VDW.0>
-0.101679

>  <SCORE.INTRA.norm>
-0.508033

>  <SCORE.RESTR>
0

>  <SCORE.RESTR.CAVITY>
0

>  <SCORE.RESTR.norm>
0

>  <SCORE.SYSTEM>
-7.35369

>  <SCORE.SYSTEM.CONST>
0

>  <SCORE.SYSTEM.DIHEDRAL>
9.38682

>  <SCORE.SYSTEM.POLAR>
-4.59681

>  <SCORE.SYSTEM.REPUL>
0.0391603

>  <SCORE.SYSTEM.VDW>
3.38625

>  <SCORE.SYSTEM.norm>
-0.408538

>  <SCORE.heavy>
18

>  <SCORE.norm>
-1.70167

$$$$
F0777-2196
  rDOCK(R)          3D
libRbt.so/2013.1/901 2013/11/27
 19 20  0  0  0  0  0  0  0  0999 V2000
  -17.0784   16.6382  -16.2092 O   0  0  0  0  0  0
  -16.2638   17.7102  -16.4703 C   0  0  0  0  0  0
  -16.5547   18.9917  -15.9793 C   0  0  0  0  0  0
  -15.7020   20.0639  -16.2614 C   0  0  0  0  0  0
  -14.5691   19.8530  -17.0456 C   0  0  0  0  0  0
  -13.5313   21.1766  -17.4088 Cl  0  0  0  0  0  0
  -14.2738   18.5872  -17.5458 C   0  0  0  0  0  0
  -15.1201   17.5156  -17.2543 C   0  0  0  0  0  0
  -14.7187   15.9630  -17.8948 Cl  0  0  0  0  0  0
  -17.7639   19.2771  -15.1769 C   0  0  0  0  0  0
  -18.1808   20.4930  -14.9978 N   0  0  0  0  0  0
  -19.3028   20.6505  -14.2301 C   0  0  0  0  0  0
  -20.0445   19.7306  -13.5932 C   0  0  0  0  0  0
  -21.2485   20.3385  -12.9470 C   0  0  0  0  0  0
  -20.9505   21.8346  -13.0064 C   0  0  0  0  0  0
  -19.9277   22.0127  -14.1256 C   0  0  0  0  0  0
  -19.7671   18.3428  -13.5367 C   0  0  0  0  0  0
  -19.5159   17.2143  -13.4546 N   0  0  0  0  0  0
  -17.8858   16.9716  -15.7568 H   0  0  0  0  0  0
  1  2  1  0  0  0
  1 19  1  0  0  0
  2  3  2  0  0  0
  2  8  1  0  0  0
  3  4  1  0  0  0
  3 10  1  0  0  0
  4  5  2  0  0  0
  5  6  1  0  0  0
  5  7  1  0  0  0
  7  8  2  0  0  0
  8  9  1  0  0  0
 10 11  2  0  0  0
 11 12  1  0  0  0
 12 13  2  0  0  0
 12 16  1  0  0  0
 13 14  1  0  0  0
 13 17  1  0  0  0
 14 15  1  0  0  0
 15 16  1  0  0  0
 17 18  3  0  0  0
M  END
>  <CHROM.0>
-177.79937347,-167.57393669,-46.54205529,-59.52590715,-30.37771988,63.68857551
-156.94274826,-160.16911675

>  <CHROM.1>
7.11611492,-163.70056146,1.60921653,-16.98292024,19.12794085,-15.73504922
0.35682841,-0.56670685,-3.01077129

>  <Name>
F0777-2196

>  <RI>
3.63994e+07

>  <Rbt.Current_Directory>
/home/adria/Escritorio/rDock_CMTR_LC/2pxcA_model/inputs_sah

>  <Rbt.Executable>
rbdock ($Id: //depot/dev/client3/rdock/2013.1/src/exe/rbdock.cxx#4 $)

>  <Rbt.Library>
libRbt.so (2013.1, Build901 2013/11/27)

>  <Rbt.Parameter_File>
/home/adria/Escritorio/rDock_2013.1_src/data/scripts/dock.prm

>  <Rbt.Receptor>
sah_rdock.prm

>  <SCORE>
-33.9574

>  <SCORE.INTER>
-17.1534

>  <SCORE.INTER.CONST>
1

>  <SCORE.INTER.POLAR>
-0.824621

>  <SCORE.INTER.REPUL>
0

>  <SCORE.INTER.ROT>
2

>  <SCORE.INTER.VDW>
-21.7497

>  <SCORE.INTER.norm>
-0.952969

>  <SCORE.INTRA>
-10.9142

>  <SCORE.INTRA.DIHEDRAL>
-31.2639

>  <SCORE.INTRA.DIHEDRAL.0>
32.6986

>  <SCORE.INTRA.POLAR>
0.927915

>  <SCORE.INTRA.POLAR.0>
-0.927915

>  <SCORE.INTRA.REPUL>
0

>  <SCORE.INTRA.REPUL.0>
0

>  <SCORE.INTRA.VDW>
1.56282

>  <SCORE.INTRA.VDW.0>
-0.101679

>  <SCORE.INTRA.norm>
-0.606344

>  <SCORE.RESTR>
0

>  <SCORE.RESTR.CAVITY>
0

>  <SCORE.RESTR.norm>
0

>  <SCORE.SYSTEM>
-5.88979

>  <SCORE.SYSTEM.CONST>
0

>  <SCORE.SYSTEM.DIHEDRAL>
6.46415

>  <SCORE.SYSTEM.POLAR>
-3.72402

>  <SCORE.SYSTEM.VDW>
3.5398

>  <SCORE.SYSTEM.norm>
-0.327211

>  <SCORE.heavy>
18

>  <SCORE.norm>
-1.88652

$$$$
F0777-2196
  rDOCK(R)          3D
libRbt.so/2013.1/901 2013/11/27
 19 20  0  0  0  0  0  0  0  0999 V2000
  -19.1566   15.7423  -13.9946 O   0  0  0  0  0  0
  -18.5112   15.4533  -15.1697 C   0  0  0  0  0  0
  -18.1368   16.4615  -16.0705 C   0  0  0  0  0  0
  -17.4775   16.1337  -17.2596 C   0  0  0  0  0  0
  -17.2078   14.7973  -17.5498 C   0  0  0  0  0  0
  -16.4143   14.3933  -19.0223 Cl  0  0  0  0  0  0
  -17.5817   13.7866  -16.6677 C   0  0  0  0  0  0
  -18.2301   14.1162  -15.4759 C   0  0  0  0  0  0
  -18.6778   12.8331  -14.4103 Cl  0  0  0  0  0  0
  -18.4349   17.8900  -15.8294 C   0  0  0  0  0  0
  -18.9585   18.2884  -14.7108 N   0  0  0  0  0  0
  -19.2058   19.6292  -14.5918 C   0  0  0  0  0  0
  -18.9450   20.6304  -15.4469 C   0  0  0  0  0  0
  -19.2981   21.9627  -14.8663 C   0  0  0  0  0  0
  -20.1309   21.5927  -13.6414 C   0  0  0  0  0  0
  -19.7467   20.1569  -13.2933 C   0  0  0  0  0  0
  -18.3834   20.4859  -16.7392 C   0  0  0  0  0  0
  -17.9644   20.3628  -17.8127 N   0  0  0  0  0  0
  -19.2767   16.7174  -13.9443 H   0  0  0  0  0  0
  1  2  1  0  0  0
  1 19  1  0  0  0
  2  3  2  0  0  0
  2  8  1  0  0  0
  3  4  1  0  0  0
  3 10  1  0  0  0
  4  5  2  0  0  0
  5  6  1  0  0  0
  5  7  1  0  0  0
  7  8  2  0  0  0
  8  9  1  0  0  0
 10 11  2  0  0  0
 11 12  1  0  0  0
 12 13  2  0  0  0
 12 16  1  0  0  0
 13 14  1  0  0  0
 13 17  1  0  0  0
 14 15  1  0  0  0
 15 16  1  0  0  0
 17 18  3  0  0  0
M  END
>  <CHROM.0>
-179.18752261,68.76982385,-45.15630676,62.48479493,-31.57127439,-60.59557054
-156.80994806,-50.82251403

>  <CHROM.1>
-0.08881002,6.03324373,-2.71214802,-18.34862958,16.90147094,-15.81644186
1.05313855,-1.09726195,2.92291300

>  <Name>
F0777-2196

>  <RI>
3.63994e+07

>  <Rbt.Current_Directory>
/home/adria/Escritorio/rDock_CMTR_LC/2pxcA_model/inputs_sah

>  <Rbt.Executable>
rbdock ($Id: //depot/dev/client3/rdock/2013.1/src/exe/rbdock.cxx#4 $)

>  <Rbt.Library>
libRbt.so (2013.1, Build901 2013/11/27)

>  <Rbt.Parameter_File>
/home/adria/Escritorio/rDock_2013.1_src/data/scripts/dock.prm

>  <Rbt.Receptor>
sah_rdock.prm

>  <SCORE>
-33.5586

>  <SCORE.INTER>
-14.0164

>  <SCORE.INTER.CONST>
1

>  <SCORE.INTER.POLAR>
-1.38551

>  <SCORE.INTER.REPUL>
0

>  <SCORE.INTER.ROT>
2

>  <SCORE.INTER.VDW>
-16.7057

>  <SCORE.INTER.norm>
-0.778688

>  <SCORE.INTRA>
-14.7833

>  <SCORE.INTRA.DIHEDRAL>
-32.4593

>  <SCORE.INTRA.DIHEDRAL.0>
32.6986

>  <SCORE.INTRA.POLAR>
0.000685511

>  <SCORE.INTRA.POLAR.0>
-0.927915

>  <SCORE.INTRA.REPUL>
0

>  <SCORE.INTRA.REPUL.0>
0

>  <SCORE.INTRA.VDW>
1.44396

>  <SCORE.INTRA.VDW.0>
-0.101679

>  <SCORE.INTRA.norm>
-0.821297

>  <SCORE.RESTR>
0

>  <SCORE.RESTR.CAVITY>
0

>  <SCORE.RESTR.norm>
0

>  <SCORE.SYSTEM>
-4.7589

>  <SCORE.SYSTEM.CONST>
0

>  <SCORE.SYSTEM.DIHEDRAL>
8.28242

>  <SCORE.SYSTEM.POLAR>
-3.3517

>  <SCORE.SYSTEM.REPUL>
0.00965806

>  <SCORE.SYSTEM.VDW>
2.44738

>  <SCORE.SYSTEM.norm>
-0.264383

>  <SCORE.heavy>
18

>  <SCORE.norm>
-1.86437

$$$$
F0777-2196
  rDOCK(R)          3D
libRbt.so/2013.1/901 2013/11/27
 19 20  0  0  0  0  0  0  0  0999 V2000
  -18.3036   19.7596  -16.5145 O   0  0  0  0  0  0
  -18.9491   19.3651  -15.3705 C   0  0  0  0  0  0
  -19.1075   18.0096  -15.0456 C   0  0  0  0  0  0
  -19.7686   17.6402  -13.8698 C   0  0  0  0  0  0
  -20.2813   18.6278  -13.0304 C   0  0  0  0  0  0
  -21.1120   18.1720  -11.5941 Cl  0  0  0  0  0  0
  -20.1378   19.9767  -13.3460 C   0  0  0  0  0  0
  -19.4680   20.3442  -14.5146 C   0  0  0  0  0  0
  -19.3128   22.0271  -14.8696 Cl  0  0  0  0  0  0
  -18.6180   16.9226  -15.9211 C   0  0  0  0  0  0
  -18.7592   15.6761  -15.5888 N   0  0  0  0  0  0
  -18.2618   14.7476  -16.4626 C   0  0  0  0  0  0
  -17.6613   14.9205  -17.6506 C   0  0  0  0  0  0
  -17.3625   13.6154  -18.3169 C   0  0  0  0  0  0
  -17.5745   12.6016  -17.1953 C   0  0  0  0  0  0
  -18.4803   13.2889  -16.1767 C   0  0  0  0  0  0
  -17.3526   16.1688  -18.2446 C   0  0  0  0  0  0
  -17.0614   17.1895  -18.7098 N   0  0  0  0  0  0
  -18.1066   18.9559  -17.0463 H   0  0  0  0  0  0
  1  2  1  0  0  0
  1 19  1  0  0  0
  2  3  2  0  0  0
  2  8  1  0  0  0
  3  4  1  0  0  0
  3 10  1  0  0  0
  4  5  2  0  0  0
  5  6  1  0  0  0
  5  7  1  0  0  0
  7  8  2  0  0  0
  8  9  1  0  0  0
 10 11  2  0  0  0
 11 12  1  0  0  0
 12 13  2  0  0  0
 12 16  1  0  0  0
 13 14  1  0  0  0
 13 17  1  0  0  0
 14 15  1  0  0  0
 15 16  1  0  0  0
 17 18  3  0  0  0
M  END
>  <CHROM.0>
-60.83593294,-72.62367831,-47.60306034,63.30200944,-29.77963534,62.73623491
-36.12735316,-163.12131023

>  <CHROM.1>
6.53990927,178.96984694,-1.59304548,-18.96425904,17.61571514,-15.33644737
-2.25411966,-1.05763200,3.10626318

>  <Name>
F0777-2196

>  <RI>
3.63994e+07

>  <Rbt.Current_Directory>
/home/adria/Escritorio/rDock_CMTR_LC/2pxcA_model/inputs_sah

>  <Rbt.Executable>
rbdock ($Id: //depot/dev/client3/rdock/2013.1/src/exe/rbdock.cxx#4 $)

>  <Rbt.Library>
libRbt.so (2013.1, Build901 2013/11/27)

>  <Rbt.Parameter_File>
/home/adria/Escritorio/rDock_2013.1_src/data/scripts/dock.prm

>  <Rbt.Receptor>
sah_rdock.prm

>  <SCORE>
-27.5237

>  <SCORE.INTER>
-8.38228

>  <SCORE.INTER.CONST>
1

>  <SCORE.INTER.POLAR>
0

>  <SCORE.INTER.REPUL>
0

>  <SCORE.INTER.ROT>
2

>  <SCORE.INTER.VDW>
-15.7823

>  <SCORE.INTER.norm>
-0.465682

>  <SCORE.INTRA>
-11.4854

>  <SCORE.INTRA.DIHEDRAL>
-32.4753

>  <SCORE.INTRA.DIHEDRAL.0>
32.6986

>  <SCORE.INTRA.POLAR>
0.927915

>  <SCORE.INTRA.POLAR.0>
-0.927915

>  <SCORE.INTRA.REPUL>
0

>  <SCORE.INTRA.REPUL.0>
0

>  <SCORE.INTRA.VDW>
1.59739

>  <SCORE.INTRA.VDW.0>
-0.101679

>  <SCORE.INTRA.norm>
-0.638076

>  <SCORE.RESTR>
0

>  <SCORE.RESTR.CAVITY>
0

>  <SCORE.RESTR.norm>
0

>  <SCORE.SYSTEM>
-7.65604

>  <SCORE.SYSTEM.CONST>
0

>  <SCORE.SYSTEM.DIHEDRAL>
6.47852

>  <SCORE.SYSTEM.POLAR>
-4.03572

>  <SCORE.SYSTEM.REPUL>
0.0378566

>  <SCORE.SYSTEM.VDW>
2.63687

>  <SCORE.SYSTEM.norm>
-0.425335

>  <SCORE.heavy>
18

>  <SCORE.norm>
-1.52909

$$$$
