F2710-0004
  rDOCK(R)          3D
libRbt.so/2013.1/901 2013/11/27
 27 29  0  0  0  0  0  0  0  0999 V2000
  -21.6570   16.7336  -13.3983 C   0  0  0  0  0  0
  -20.2808   16.5272  -13.6737 O   0  0  0  0  0  0
  -19.5481   17.6299  -14.1074 C   0  0  0  0  0  0
  -18.5489   17.2780  -15.0244 C   0  0  0  0  0  0
  -17.8062   18.2585  -15.6653 C   0  0  0  0  0  0
  -18.0644   19.6165  -15.4295 C   0  0  0  0  0  0
  -17.1946   20.7830  -16.3494 Cl  0  0  0  0  0  0
  -18.9791   19.9821  -14.4174 C   0  0  0  0  0  0
  -19.7149   19.0004  -13.7388 C   0  0  0  0  0  0
  -20.5215   19.5163  -12.7355 N   0  0  0  0  0  0
  -20.3248   20.8054  -12.5242 C   0  0  0  0  0  0
  -19.4015   21.5547  -13.7555 S   0  0  0  0  0  0
  -21.2093   21.5594  -11.6836 N   0  0  0  0  0  0
  -20.7802   23.0624  -11.8932 C   0  0  0  0  0  0
  -21.1220   24.0316  -10.7919 C   0  0  0  0  0  0
  -20.6915   25.2825  -11.3046 N   0  0  0  0  0  0
  -22.0982   25.9645  -11.7012 C   0  0  0  0  0  0
  -19.4748   25.6878  -10.3087 C   0  0  0  0  0  0
  -22.4065   20.8610  -10.9073 C   0  0  0  0  0  0
  -22.5951   19.6007  -11.2596 O   0  0  0  0  0  0
  -23.5984   21.3623   -9.6820 C   0  0  0  0  0  0
  -24.2015   22.6682   -9.3202 C   0  0  0  0  0  0
  -25.5291   22.9487   -8.9667 C   0  0  0  0  0  0
  -26.1361   24.2195   -9.5866 C   0  0  0  0  0  0
  -26.1011   21.9613   -8.2379 C   0  0  0  0  0  0
  -25.3713   20.7453   -8.0953 C   0  0  0  0  0  0
  -24.1938   20.4159   -8.8681 C   0  0  0  0  0  0
  1  2  1  0  0  0
  2  3  1  0  0  0
  3  4  2  0  0  0
  3  9  1  0  0  0
  4  5  1  0  0  0
  5  6  2  0  0  0
  6  7  1  0  0  0
  6  8  1  0  0  0
  8  9  2  0  0  0
  8 12  1  0  0  0
  9 10  1  0  0  0
 10 11  2  0  0  0
 11 12  1  0  0  0
 11 13  1  0  0  0
 13 14  1  0  0  0
 13 19  1  0  0  0
 14 15  1  0  0  0
 15 16  1  0  0  0
 16 17  1  0  0  0
 16 18  1  0  0  0
 19 20  2  0  0  0
 19 21  1  0  0  0
 21 22  2  0  0  0
 21 27  1  0  0  0
 22 23  1  0  0  0
 23 24  1  0  0  0
 23 25  2  0  0  0
 25 26  1  0  0  0
 26 27  2  0  0  0
M  END
>  <CHROM.0>
-63.56802035,-75.44454598,-46.46633794,66.82324120,168.57943264,-55.74758801
-156.05791558,-159.20799942

>  <CHROM.1>
-145.95566704,-170.64101383,-156.62461063,-176.49738035,104.83609192,26.23641137
-21.08453594,21.08315417,-12.28433550,0.59390371,-0.68413763,-2.91704921

>  <Name>
F2710-0004

>  <RI>
4.41245e+07

>  <Rbt.Current_Directory>
/home/adria/Escritorio/rDock_CMTR_LC/2pxcA_model/inputs_sah

>  <Rbt.Executable>
rbdock ($Id: //depot/dev/client3/rdock/2013.1/src/exe/rbdock.cxx#4 $)

>  <Rbt.Library>
libRbt.so (2013.1, Build901 2013/11/27)

>  <Rbt.Parameter_File>
/home/adria/Escritorio/rDock_2013.1_src/data/scripts/dock.prm

>  <Rbt.Receptor>
sah_rdock.prm

>  <SCORE>
-70.4981

>  <SCORE.INTER>
-11.0718

>  <SCORE.INTER.CONST>
1

>  <SCORE.INTER.POLAR>
-0.750386

>  <SCORE.INTER.REPUL>
0.0434682

>  <SCORE.INTER.ROT>
6

>  <SCORE.INTER.VDW>
-20.1379

>  <SCORE.INTER.norm>
-0.410068

>  <SCORE.INTRA>
-56.6178

>  <SCORE.INTRA.DIHEDRAL>
-23.4735

>  <SCORE.INTRA.DIHEDRAL.0>
33.5804

>  <SCORE.INTRA.POLAR>
0

>  <SCORE.INTRA.POLAR.0>
0

>  <SCORE.INTRA.REPUL>
0

>  <SCORE.INTRA.REPUL.0>
0

>  <SCORE.INTRA.VDW>
-44.881

>  <SCORE.INTRA.VDW.0>
47.7816

>  <SCORE.INTRA.norm>
-2.09696

>  <SCORE.RESTR>
0

>  <SCORE.RESTR.CAVITY>
0

>  <SCORE.RESTR.norm>
0

>  <SCORE.SYSTEM>
-2.80845

>  <SCORE.SYSTEM.CONST>
0

>  <SCORE.SYSTEM.DIHEDRAL>
4.35068

>  <SCORE.SYSTEM.POLAR>
-4.04824

>  <SCORE.SYSTEM.REPUL>
0.0426056

>  <SCORE.SYSTEM.VDW>
8.5672

>  <SCORE.SYSTEM.norm>
-0.104017

>  <SCORE.heavy>
27

>  <SCORE.norm>
-2.61104

$$$$
F2710-0004
  rDOCK(R)          3D
libRbt.so/2013.1/901 2013/11/27
 27 29  0  0  0  0  0  0  0  0999 V2000
  -23.8658   20.5410   -9.2868 C   0  0  0  0  0  0
  -24.2745   21.8983   -9.3430 O   0  0  0  0  0  0
  -23.3292   22.8284   -9.7699 C   0  0  0  0  0  0
  -23.3473   23.9982   -8.9989 C   0  0  0  0  0  0
  -22.3885   24.9817   -9.1915 C   0  0  0  0  0  0
  -21.3686   24.8075  -10.1379 C   0  0  0  0  0  0
  -20.1383   26.0072  -10.2402 Cl  0  0  0  0  0  0
  -21.4120   23.6941  -11.0058 C   0  0  0  0  0  0
  -22.3940   22.7068  -10.8436 C   0  0  0  0  0  0
  -22.3381   21.7145  -11.8107 N   0  0  0  0  0  0
  -21.4690   21.9753  -12.7708 C   0  0  0  0  0  0
  -20.4146   23.2687  -12.3893 S   0  0  0  0  0  0
  -21.1145   20.9765  -13.7374 N   0  0  0  0  0  0
  -22.2743   19.9108  -13.6591 C   0  0  0  0  0  0
  -21.9137   18.4825  -13.9738 C   0  0  0  0  0  0
  -23.1731   17.8496  -14.1352 N   0  0  0  0  0  0
  -23.1347   17.4598  -15.6997 C   0  0  0  0  0  0
  -23.3375   17.0041  -12.7588 C   0  0  0  0  0  0
  -19.8637   21.1644  -14.6987 C   0  0  0  0  0  0
  -19.3298   22.3723  -14.6340 O   0  0  0  0  0  0
  -19.0007   20.1521  -15.8834 C   0  0  0  0  0  0
  -17.7077   20.2939  -16.5961 C   0  0  0  0  0  0
  -16.7526   19.3063  -16.8765 C   0  0  0  0  0  0
  -15.2838   19.7101  -16.6589 C   0  0  0  0  0  0
  -17.3051   18.1038  -17.1629 C   0  0  0  0  0  0
  -18.7099   17.9646  -16.9660 C   0  0  0  0  0  0
  -19.5250   18.9292  -16.2607 C   0  0  0  0  0  0
  1  2  1  0  0  0
  2  3  1  0  0  0
  3  4  2  0  0  0
  3  9  1  0  0  0
  4  5  1  0  0  0
  5  6  2  0  0  0
  6  7  1  0  0  0
  6  8  1  0  0  0
  8  9  2  0  0  0
  8 12  1  0  0  0
  9 10  1  0  0  0
 10 11  2  0  0  0
 11 12  1  0  0  0
 11 13  1  0  0  0
 13 14  1  0  0  0
 13 19  1  0  0  0
 14 15  1  0  0  0
 15 16  1  0  0  0
 16 17  1  0  0  0
 16 18  1  0  0  0
 19 20  2  0  0  0
 19 21  1  0  0  0
 21 22  2  0  0  0
 21 27  1  0  0  0
 22 23  1  0  0  0
 23 24  1  0  0  0
 23 25  2  0  0  0
 25 26  1  0  0  0
 26 27  2  0  0  0
M  END
>  <CHROM.0>
-59.81389808,66.92778781,-8.28483647,62.74998483,-29.72916514,61.11517105
-156.20791556,-163.27036624

>  <CHROM.1>
-137.55573329,18.76722902,-149.77059205,-166.53903546,114.24427754,-168.16963273
-20.90572536,21.35440253,-12.97048217,2.05172244,0.57694030,0.61626503

>  <Name>
F2710-0004

>  <RI>
4.41245e+07

>  <Rbt.Current_Directory>
/home/adria/Escritorio/rDock_CMTR_LC/2pxcA_model/inputs_sah

>  <Rbt.Executable>
rbdock ($Id: //depot/dev/client3/rdock/2013.1/src/exe/rbdock.cxx#4 $)

>  <Rbt.Library>
libRbt.so (2013.1, Build901 2013/11/27)

>  <Rbt.Parameter_File>
/home/adria/Escritorio/rDock_2013.1_src/data/scripts/dock.prm

>  <Rbt.Receptor>
sah_rdock.prm

>  <SCORE>
-77.7456

>  <SCORE.INTER>
-12.3493

>  <SCORE.INTER.CONST>
1

>  <SCORE.INTER.POLAR>
0

>  <SCORE.INTER.REPUL>
0

>  <SCORE.INTER.ROT>
6

>  <SCORE.INTER.VDW>
-23.7493

>  <SCORE.INTER.norm>
-0.457383

>  <SCORE.INTRA>
-58.1779

>  <SCORE.INTRA.DIHEDRAL>
-24.4091

>  <SCORE.INTRA.DIHEDRAL.0>
33.5804

>  <SCORE.INTRA.POLAR>
0

>  <SCORE.INTRA.POLAR.0>
0

>  <SCORE.INTRA.REPUL>
0

>  <SCORE.INTRA.REPUL.0>
0

>  <SCORE.INTRA.VDW>
-45.9734

>  <SCORE.INTRA.VDW.0>
47.7816

>  <SCORE.INTRA.norm>
-2.15474

>  <SCORE.RESTR>
0

>  <SCORE.RESTR.CAVITY>
0

>  <SCORE.RESTR.norm>
0

>  <SCORE.SYSTEM>
-7.21827

>  <SCORE.SYSTEM.CONST>
0

>  <SCORE.SYSTEM.DIHEDRAL>
8.98205

>  <SCORE.SYSTEM.POLAR>
-4.38575

>  <SCORE.SYSTEM.VDW>
3.20225

>  <SCORE.SYSTEM.norm>
-0.267343

>  <SCORE.heavy>
27

>  <SCORE.norm>
-2.87947

$$$$
F2710-0004
  rDOCK(R)          3D
libRbt.so/2013.1/901 2013/11/27
 27 29  0  0  0  0  0  0  0  0999 V2000
  -17.7557   15.2712  -18.2856 C   0  0  0  0  0  0
  -16.6850   15.9405  -18.9322 O   0  0  0  0  0  0
  -16.1946   17.0920  -18.3201 C   0  0  0  0  0  0
  -14.8237   17.2726  -18.5464 C   0  0  0  0  0  0
  -14.1889   18.4322  -18.1268 C   0  0  0  0  0  0
  -14.9143   19.4544  -17.4982 C   0  0  0  0  0  0
  -14.0941   20.9188  -17.1155 Cl  0  0  0  0  0  0
  -16.2656   19.2330  -17.1524 C   0  0  0  0  0  0
  -16.9127   18.0520  -17.5425 C   0  0  0  0  0  0
  -18.2147   17.9604  -17.0739 N   0  0  0  0  0  0
  -18.5331   18.9307  -16.2359 C   0  0  0  0  0  0
  -17.3957   20.2099  -16.2259 S   0  0  0  0  0  0
  -19.8905   19.1284  -15.8164 N   0  0  0  0  0  0
  -19.8813   20.5141  -15.0635 C   0  0  0  0  0  0
  -20.8572   20.6827  -13.9284 C   0  0  0  0  0  0
  -20.1618   20.1534  -12.8107 N   0  0  0  0  0  0
  -20.0845   21.4427  -11.8449 C   0  0  0  0  0  0
  -20.7853   18.6614  -12.6640 C   0  0  0  0  0  0
  -21.0444   18.1279  -16.2537 C   0  0  0  0  0  0
  -20.6573   17.2447  -17.1582 O   0  0  0  0  0  0
  -22.7651   17.9085  -15.8488 C   0  0  0  0  0  0
  -23.6579   18.5114  -14.8293 C   0  0  0  0  0  0
  -24.9944   18.9126  -14.9668 C   0  0  0  0  0  0
  -25.3627   20.2586  -14.3183 C   0  0  0  0  0  0
  -25.7091   18.0983  -15.7788 C   0  0  0  0  0  0
  -24.9928   17.0983  -16.4988 C   0  0  0  0  0  0
  -23.5508   17.0579  -16.6050 C   0  0  0  0  0  0
  1  2  1  0  0  0
  2  3  1  0  0  0
  3  4  2  0  0  0
  3  9  1  0  0  0
  4  5  1  0  0  0
  5  6  2  0  0  0
  6  7  1  0  0  0
  6  8  1  0  0  0
  8  9  2  0  0  0
  8 12  1  0  0  0
  9 10  1  0  0  0
 10 11  2  0  0  0
 11 12  1  0  0  0
 11 13  1  0  0  0
 13 14  1  0  0  0
 13 19  1  0  0  0
 14 15  1  0  0  0
 15 16  1  0  0  0
 16 17  1  0  0  0
 16 18  1  0  0  0
 19 20  2  0  0  0
 19 21  1  0  0  0
 21 22  2  0  0  0
 21 27  1  0  0  0
 22 23  1  0  0  0
 23 24  1  0  0  0
 23 25  2  0  0  0
 25 26  1  0  0  0
 26 27  2  0  0  0
M  END
>  <CHROM.0>
-177.16225232,-72.79677177,-45.60025795,67.44736977,-30.18120687,64.59042695
-156.13449904,-161.56343968

>  <CHROM.1>
148.19099978,-169.65745340,-148.30632039,86.33913264,119.09672322,-8.51349773
-19.25775108,18.80929754,-16.15167272,0.20635674,-0.24076183,-2.39451135

>  <Name>
F2710-0004

>  <RI>
4.41245e+07

>  <Rbt.Current_Directory>
/home/adria/Escritorio/rDock_CMTR_LC/2pxcA_model/inputs_sah

>  <Rbt.Executable>
rbdock ($Id: //depot/dev/client3/rdock/2013.1/src/exe/rbdock.cxx#4 $)

>  <Rbt.Library>
libRbt.so (2013.1, Build901 2013/11/27)

>  <Rbt.Parameter_File>
/home/adria/Escritorio/rDock_2013.1_src/data/scripts/dock.prm

>  <Rbt.Receptor>
sah_rdock.prm

>  <SCORE>
-76.7174

>  <SCORE.INTER>
-12.392

>  <SCORE.INTER.CONST>
1

>  <SCORE.INTER.POLAR>
0

>  <SCORE.INTER.REPUL>
0.0258353

>  <SCORE.INTER.ROT>
6

>  <SCORE.INTER.VDW>
-23.9212

>  <SCORE.INTER.norm>
-0.458963

>  <SCORE.INTRA>
-57.0519

>  <SCORE.INTRA.DIHEDRAL>
-23.6906

>  <SCORE.INTRA.DIHEDRAL.0>
33.5804

>  <SCORE.INTRA.POLAR>
0

>  <SCORE.INTRA.POLAR.0>
0

>  <SCORE.INTRA.REPUL>
0

>  <SCORE.INTRA.REPUL.0>
0

>  <SCORE.INTRA.VDW>
-45.2066

>  <SCORE.INTRA.VDW.0>
47.7816

>  <SCORE.INTRA.norm>
-2.11303

>  <SCORE.RESTR>
0

>  <SCORE.RESTR.CAVITY>
0

>  <SCORE.RESTR.norm>
0

>  <SCORE.SYSTEM>
-7.27354

>  <SCORE.SYSTEM.CONST>
0

>  <SCORE.SYSTEM.DIHEDRAL>
6.90579

>  <SCORE.SYSTEM.POLAR>
-4.0669

>  <SCORE.SYSTEM.REPUL>
0.0381706

>  <SCORE.SYSTEM.VDW>
2.91017

>  <SCORE.SYSTEM.norm>
-0.269391

>  <SCORE.heavy>
27

>  <SCORE.norm>
-2.84138

$$$$
F2710-0004
  rDOCK(R)          3D
libRbt.so/2013.1/901 2013/11/27
 27 29  0  0  0  0  0  0  0  0999 V2000
  -17.7525   14.8203  -16.2560 C   0  0  0  0  0  0
  -16.3680   14.9978  -16.5094 O   0  0  0  0  0  0
  -15.9035   16.3077  -16.6060 C   0  0  0  0  0  0
  -14.6575   16.3853  -17.2420 C   0  0  0  0  0  0
  -14.0993   17.6180  -17.5464 C   0  0  0  0  0  0
  -14.7865   18.8041  -17.2511 C   0  0  0  0  0  0
  -14.0978   20.2949  -17.7676 Cl  0  0  0  0  0  0
  -15.9807   18.7440  -16.4995 C   0  0  0  0  0  0
  -16.5411   17.5053  -16.1572 C   0  0  0  0  0  0
  -17.6763   17.6169  -15.3685 N   0  0  0  0  0  0
  -17.9159   18.8559  -14.9779 C   0  0  0  0  0  0
  -16.9833   20.0181  -15.8204 S   0  0  0  0  0  0
  -19.1534   19.2033  -14.3412 N   0  0  0  0  0  0
  -19.7642   17.8276  -13.8708 C   0  0  0  0  0  0
  -20.9128   17.2779  -14.6755 C   0  0  0  0  0  0
  -21.8994   18.2932  -14.5834 N   0  0  0  0  0  0
  -22.0382   18.7424  -16.1261 C   0  0  0  0  0  0
  -22.9301   17.7035  -13.4760 C   0  0  0  0  0  0
  -19.5685   20.7199  -14.1144 C   0  0  0  0  0  0
  -18.6013   21.5758  -14.3971 O   0  0  0  0  0  0
  -21.0222   21.5732  -13.5384 C   0  0  0  0  0  0
  -22.3088   21.1181  -12.9575 C   0  0  0  0  0  0
  -23.0415   21.6869  -11.9059 C   0  0  0  0  0  0
  -23.6308   20.6981  -10.8847 C   0  0  0  0  0  0
  -22.9859   23.0397  -11.8950 C   0  0  0  0  0  0
  -22.0796   23.6655  -12.7998 C   0  0  0  0  0  0
  -21.0586   22.9557  -13.5387 C   0  0  0  0  0  0
  1  2  1  0  0  0
  2  3  1  0  0  0
  3  4  2  0  0  0
  3  9  1  0  0  0
  4  5  1  0  0  0
  5  6  2  0  0  0
  6  7  1  0  0  0
  6  8  1  0  0  0
  8  9  2  0  0  0
  8 12  1  0  0  0
  9 10  1  0  0  0
 10 11  2  0  0  0
 11 12  1  0  0  0
 11 13  1  0  0  0
 13 14  1  0  0  0
 13 19  1  0  0  0
 14 15  1  0  0  0
 15 16  1  0  0  0
 16 17  1  0  0  0
 16 18  1  0  0  0
 19 20  2  0  0  0
 19 21  1  0  0  0
 21 22  2  0  0  0
 21 27  1  0  0  0
 22 23  1  0  0  0
 23 24  1  0  0  0
 23 25  2  0  0  0
 25 26  1  0  0  0
 26 27  2  0  0  0
M  END
>  <CHROM.0>
37.68555390,-168.29208956,-8.57629835,147.45413136,-29.92043366,179.89369100
-36.25998051,-161.14467683

>  <CHROM.1>
-161.92484548,17.34504216,-104.54614523,-59.30621601,116.74010761,6.52327167
-18.71536629,19.23466382,-15.04934567,0.46283751,-0.47317393,-2.97553790

>  <Name>
F2710-0004

>  <RI>
4.41245e+07

>  <Rbt.Current_Directory>
/home/adria/Escritorio/rDock_CMTR_LC/2pxcA_model/inputs_sah

>  <Rbt.Executable>
rbdock ($Id: //depot/dev/client3/rdock/2013.1/src/exe/rbdock.cxx#4 $)

>  <Rbt.Library>
libRbt.so (2013.1, Build901 2013/11/27)

>  <Rbt.Parameter_File>
/home/adria/Escritorio/rDock_2013.1_src/data/scripts/dock.prm

>  <Rbt.Receptor>
sah_rdock.prm

>  <SCORE>
-70.0792

>  <SCORE.INTER>
-11.854

>  <SCORE.INTER.CONST>
1

>  <SCORE.INTER.POLAR>
0

>  <SCORE.INTER.REPUL>
0

>  <SCORE.INTER.ROT>
6

>  <SCORE.INTER.VDW>
-23.254

>  <SCORE.INTER.norm>
-0.439036

>  <SCORE.INTRA>
-59.6666

>  <SCORE.INTRA.DIHEDRAL>
-26.8905

>  <SCORE.INTRA.DIHEDRAL.0>
33.5804

>  <SCORE.INTRA.POLAR>
0

>  <SCORE.INTRA.POLAR.0>
0

>  <SCORE.INTRA.REPUL>
0

>  <SCORE.INTRA.REPUL.0>
0

>  <SCORE.INTRA.VDW>
-46.2213

>  <SCORE.INTRA.VDW.0>
47.7816

>  <SCORE.INTRA.norm>
-2.20987

>  <SCORE.RESTR>
0

>  <SCORE.RESTR.CAVITY>
0

>  <SCORE.RESTR.norm>
0

>  <SCORE.SYSTEM>
1.44133

>  <SCORE.SYSTEM.CONST>
0

>  <SCORE.SYSTEM.DIHEDRAL>
15.6826

>  <SCORE.SYSTEM.POLAR>
-4.26507

>  <SCORE.SYSTEM.REPUL>
0.130273

>  <SCORE.SYSTEM.VDW>
7.4499

>  <SCORE.SYSTEM.norm>
0.0533826

>  <SCORE.heavy>
27

>  <SCORE.norm>
-2.59553

$$$$
F2710-0004
  rDOCK(R)          3D
libRbt.so/2013.1/901 2013/11/27
 27 29  0  0  0  0  0  0  0  0999 V2000
  -25.1922   23.3370   -9.9296 C   0  0  0  0  0  0
  -24.3549   24.0991   -9.0747 O   0  0  0  0  0  0
  -23.1302   24.5152   -9.5922 C   0  0  0  0  0  0
  -22.7679   25.7915   -9.1418 C   0  0  0  0  0  0
  -21.5204   26.3161   -9.4456 C   0  0  0  0  0  0
  -20.5914   25.5659  -10.1809 C   0  0  0  0  0  0
  -19.0176   26.2226  -10.4162 Cl  0  0  0  0  0  0
  -20.9882   24.3340  -10.7462 C   0  0  0  0  0  0
  -22.2576   23.8052  -10.4735 C   0  0  0  0  0  0
  -22.5157   22.6231  -11.1512 N   0  0  0  0  0  0
  -21.5760   22.3118  -12.0260 C   0  0  0  0  0  0
  -20.1519   23.2436  -11.8423 S   0  0  0  0  0  0
  -21.5566   21.0269  -12.6632 N   0  0  0  0  0  0
  -22.8688   20.3094  -12.1627 C   0  0  0  0  0  0
  -22.7136   19.2822  -11.0719 C   0  0  0  0  0  0
  -24.0483   18.8918  -10.7906 N   0  0  0  0  0  0
  -24.0615   17.3791  -11.3495 C   0  0  0  0  0  0
  -24.3306   19.5688   -9.3421 C   0  0  0  0  0  0
  -20.4467   20.6539  -13.7368 C   0  0  0  0  0  0
  -19.6959   21.6821  -14.0932 O   0  0  0  0  0  0
  -19.9675   19.1825  -14.6192 C   0  0  0  0  0  0
  -19.0059   18.9196  -15.7174 C   0  0  0  0  0  0
  -18.1354   17.8314  -15.8738 C   0  0  0  0  0  0
  -16.7120   18.1717  -16.3492 C   0  0  0  0  0  0
  -18.6663   16.6641  -15.4393 C   0  0  0  0  0  0
  -19.9077   16.7283  -14.7420 C   0  0  0  0  0  0
  -20.5012   17.9574  -14.2629 C   0  0  0  0  0  0
  1  2  1  0  0  0
  2  3  1  0  0  0
  3  4  2  0  0  0
  3  9  1  0  0  0
  4  5  1  0  0  0
  5  6  2  0  0  0
  6  7  1  0  0  0
  6  8  1  0  0  0
  8  9  2  0  0  0
  8 12  1  0  0  0
  9 10  1  0  0  0
 10 11  2  0  0  0
 11 12  1  0  0  0
 11 13  1  0  0  0
 13 14  1  0  0  0
 13 19  1  0  0  0
 14 15  1  0  0  0
 15 16  1  0  0  0
 16 17  1  0  0  0
 16 18  1  0  0  0
 19 20  2  0  0  0
 19 21  1  0  0  0
 21 22  2  0  0  0
 21 27  1  0  0  0
 22 23  1  0  0  0
 23 24  1  0  0  0
 23 25  2  0  0  0
 25 26  1  0  0  0
 26 27  2  0  0  0
M  END
>  <CHROM.0>
-57.43230424,68.74992966,-44.31660592,66.22513526,-31.39268495,60.75713269
82.60495913,-161.43129437

>  <CHROM.1>
143.57298148,4.54212413,-101.69889999,176.46852303,111.00574469,172.63870905
-21.23225902,21.66691443,-11.95688818,1.90754483,0.55908238,0.43908678

>  <Name>
F2710-0004

>  <RI>
4.41245e+07

>  <Rbt.Current_Directory>
/home/adria/Escritorio/rDock_CMTR_LC/2pxcA_model/inputs_sah

>  <Rbt.Executable>
rbdock ($Id: //depot/dev/client3/rdock/2013.1/src/exe/rbdock.cxx#4 $)

>  <Rbt.Library>
libRbt.so (2013.1, Build901 2013/11/27)

>  <Rbt.Parameter_File>
/home/adria/Escritorio/rDock_2013.1_src/data/scripts/dock.prm

>  <Rbt.Receptor>
sah_rdock.prm

>  <SCORE>
-76.0939

>  <SCORE.INTER>
-10.8111

>  <SCORE.INTER.CONST>
1

>  <SCORE.INTER.POLAR>
0

>  <SCORE.INTER.REPUL>
0

>  <SCORE.INTER.ROT>
6

>  <SCORE.INTER.VDW>
-22.2111

>  <SCORE.INTER.norm>
-0.40041

>  <SCORE.INTRA>
-58.3091

>  <SCORE.INTRA.DIHEDRAL>
-23.7966

>  <SCORE.INTRA.DIHEDRAL.0>
33.5804

>  <SCORE.INTRA.POLAR>
0

>  <SCORE.INTRA.POLAR.0>
0

>  <SCORE.INTRA.REPUL>
0

>  <SCORE.INTRA.REPUL.0>
0

>  <SCORE.INTRA.VDW>
-46.4108

>  <SCORE.INTRA.VDW.0>
47.7816

>  <SCORE.INTRA.norm>
-2.1596

>  <SCORE.RESTR>
0

>  <SCORE.RESTR.CAVITY>
0

>  <SCORE.RESTR.norm>
0

>  <SCORE.SYSTEM>
-6.97369

>  <SCORE.SYSTEM.CONST>
0

>  <SCORE.SYSTEM.DIHEDRAL>
6.11321

>  <SCORE.SYSTEM.POLAR>
-3.65433

>  <SCORE.SYSTEM.VDW>
2.39444

>  <SCORE.SYSTEM.norm>
-0.258285

>  <SCORE.heavy>
27

>  <SCORE.norm>
-2.81829

$$$$
F2710-0004
  rDOCK(R)          3D
libRbt.so/2013.1/901 2013/11/27
 27 29  0  0  0  0  0  0  0  0999 V2000
  -23.7795   20.4422   -9.2529 C   0  0  0  0  0  0
  -24.2358   21.7841   -9.3117 O   0  0  0  0  0  0
  -23.3272   22.7446   -9.7508 C   0  0  0  0  0  0
  -23.3791   23.9164   -8.9845 C   0  0  0  0  0  0
  -22.4568   24.9318   -9.1897 C   0  0  0  0  0  0
  -21.4399   24.7889  -10.1446 C   0  0  0  0  0  0
  -20.2530   26.0301  -10.2629 Cl  0  0  0  0  0  0
  -21.4523   23.6709  -11.0076 C   0  0  0  0  0  0
  -22.3980   22.6509  -10.8324 C   0  0  0  0  0  0
  -22.3162   21.6568  -11.7960 N   0  0  0  0  0  0
  -21.4653   21.9435  -12.7650 C   0  0  0  0  0  0
  -20.4531   23.2743  -12.3983 S   0  0  0  0  0  0
  -21.0849   20.9534  -13.7307 N   0  0  0  0  0  0
  -22.2141   19.8556  -13.6480 C   0  0  0  0  0  0
  -21.8345   18.4523  -14.0426 C   0  0  0  0  0  0
  -23.0851   17.7986  -14.1897 N   0  0  0  0  0  0
  -23.0765   17.4466  -15.7636 C   0  0  0  0  0  0
  -23.2003   16.9178  -12.8306 C   0  0  0  0  0  0
  -19.8420   21.1748  -14.6950 C   0  0  0  0  0  0
  -19.3422   22.3972  -14.6336 O   0  0  0  0  0  0
  -18.9535   20.1851  -15.8800 C   0  0  0  0  0  0
  -17.6584   20.3538  -16.5829 C   0  0  0  0  0  0
  -16.6842   19.3848  -16.8628 C   0  0  0  0  0  0
  -15.2242   19.8127  -16.6326 C   0  0  0  0  0  0
  -17.2137   18.1746  -17.1603 C   0  0  0  0  0  0
  -18.6172   18.0098  -16.9740 C   0  0  0  0  0  0
  -19.4537   18.9556  -16.2684 C   0  0  0  0  0  0
  1  2  1  0  0  0
  2  3  1  0  0  0
  3  4  2  0  0  0
  3  9  1  0  0  0
  4  5  1  0  0  0
  5  6  2  0  0  0
  6  7  1  0  0  0
  6  8  1  0  0  0
  8  9  2  0  0  0
  8 12  1  0  0  0
  9 10  1  0  0  0
 10 11  2  0  0  0
 11 12  1  0  0  0
 11 13  1  0  0  0
 13 14  1  0  0  0
 13 19  1  0  0  0
 14 15  1  0  0  0
 15 16  1  0  0  0
 16 17  1  0  0  0
 16 18  1  0  0  0
 19 20  2  0  0  0
 19 21  1  0  0  0
 21 22  2  0  0  0
 21 27  1  0  0  0
 22 23  1  0  0  0
 23 24  1  0  0  0
 23 25  2  0  0  0
 25 26  1  0  0  0
 26 27  2  0  0  0
M  END
>  <CHROM.0>
-62.76649269,-73.15877221,-166.66923319,64.97661378,-30.74480547,-58.45824887
82.79250609,-159.85894024

>  <CHROM.1>
-137.51636873,19.32813727,-153.41079748,-165.91687186,115.75223389,-167.24861107
-20.88800836,21.34177927,-12.97591452,2.07029173,0.58960298,0.60594807

>  <Name>
F2710-0004

>  <RI>
4.41245e+07

>  <Rbt.Current_Directory>
/home/adria/Escritorio/rDock_CMTR_LC/2pxcA_model/inputs_sah

>  <Rbt.Executable>
rbdock ($Id: //depot/dev/client3/rdock/2013.1/src/exe/rbdock.cxx#4 $)

>  <Rbt.Library>
libRbt.so (2013.1, Build901 2013/11/27)

>  <Rbt.Parameter_File>
/home/adria/Escritorio/rDock_2013.1_src/data/scripts/dock.prm

>  <Rbt.Receptor>
sah_rdock.prm

>  <SCORE>
-77.9191

>  <SCORE.INTER>
-12.4834

>  <SCORE.INTER.CONST>
1

>  <SCORE.INTER.POLAR>
0

>  <SCORE.INTER.REPUL>
0

>  <SCORE.INTER.ROT>
6

>  <SCORE.INTER.VDW>
-23.8834

>  <SCORE.INTER.norm>
-0.462347

>  <SCORE.INTRA>
-58.0224

>  <SCORE.INTRA.DIHEDRAL>
-24.2335

>  <SCORE.INTRA.DIHEDRAL.0>
33.5804

>  <SCORE.INTRA.POLAR>
0

>  <SCORE.INTRA.POLAR.0>
0

>  <SCORE.INTRA.REPUL>
0

>  <SCORE.INTRA.REPUL.0>
0

>  <SCORE.INTRA.VDW>
-45.9057

>  <SCORE.INTRA.VDW.0>
47.7816

>  <SCORE.INTRA.norm>
-2.14898

>  <SCORE.RESTR>
0

>  <SCORE.RESTR.CAVITY>
0

>  <SCORE.RESTR.norm>
0

>  <SCORE.SYSTEM>
-7.41335

>  <SCORE.SYSTEM.CONST>
0

>  <SCORE.SYSTEM.DIHEDRAL>
6.57299

>  <SCORE.SYSTEM.POLAR>
-3.96198

>  <SCORE.SYSTEM.REPUL>
0.0388178

>  <SCORE.SYSTEM.VDW>
2.57679

>  <SCORE.SYSTEM.norm>
-0.274569

>  <SCORE.heavy>
27

>  <SCORE.norm>
-2.88589

$$$$
F2710-0004
  rDOCK(R)          3D
libRbt.so/2013.1/901 2013/11/27
 27 29  0  0  0  0  0  0  0  0999 V2000
  -19.1172   22.0451  -15.3207 C   0  0  0  0  0  0
  -19.8726   22.3948  -14.1719 O   0  0  0  0  0  0
  -20.4714   21.3542  -13.4652 C   0  0  0  0  0  0
  -21.3499   21.8179  -12.4771 C   0  0  0  0  0  0
  -22.1368   20.9272  -11.7622 C   0  0  0  0  0  0
  -22.0887   19.5532  -12.0381 C   0  0  0  0  0  0
  -23.1805   18.5159  -11.2041 Cl  0  0  0  0  0  0
  -21.1197   19.0615  -12.9403 C   0  0  0  0  0  0
  -20.2954   19.9478  -13.6476 C   0  0  0  0  0  0
  -19.3584   19.3071  -14.4443 N   0  0  0  0  0  0
  -19.3340   17.9985  -14.2649 C   0  0  0  0  0  0
  -20.6766   17.4172  -13.3762 S   0  0  0  0  0  0
  -18.5899   17.1459  -15.1462 N   0  0  0  0  0  0
  -17.7813   18.1327  -16.0733 C   0  0  0  0  0  0
  -16.2797   18.1053  -15.9570 C   0  0  0  0  0  0
  -15.8449   18.8364  -17.0925 N   0  0  0  0  0  0
  -15.2157   20.1511  -16.4021 C   0  0  0  0  0  0
  -15.2624   17.6800  -18.0721 C   0  0  0  0  0  0
  -18.5896   15.5678  -14.9638 C   0  0  0  0  0  0
  -19.1739   15.1693  -13.8468 O   0  0  0  0  0  0
  -17.9656   14.1764  -15.8845 C   0  0  0  0  0  0
  -17.2873   14.0433  -17.1967 C   0  0  0  0  0  0
  -16.2199   13.2038  -17.5466 C   0  0  0  0  0  0
  -15.1209   13.8398  -18.4157 C   0  0  0  0  0  0
  -16.2741   11.9978  -16.9334 C   0  0  0  0  0  0
  -17.2598   11.8222  -15.9191 C   0  0  0  0  0  0
  -18.0265   12.9052  -15.3433 C   0  0  0  0  0  0
  1  2  1  0  0  0
  2  3  1  0  0  0
  3  4  2  0  0  0
  3  9  1  0  0  0
  4  5  1  0  0  0
  5  6  2  0  0  0
  6  7  1  0  0  0
  6  8  1  0  0  0
  8  9  2  0  0  0
  8 12  1  0  0  0
  9 10  1  0  0  0
 10 11  2  0  0  0
 11 12  1  0  0  0
 11 13  1  0  0  0
 13 14  1  0  0  0
 13 19  1  0  0  0
 14 15  1  0  0  0
 15 16  1  0  0  0
 16 17  1  0  0  0
 16 18  1  0  0  0
 19 20  2  0  0  0
 19 21  1  0  0  0
 21 22  2  0  0  0
 21 27  1  0  0  0
 22 23  1  0  0  0
 23 24  1  0  0  0
 23 25  2  0  0  0
 25 26  1  0  0  0
 26 27  2  0  0  0
M  END
>  <CHROM.0>
-177.94374084,-72.05022807,-42.74385295,65.36247045,168.51211674,-57.77882310
81.43615964,-50.23537781

>  <CHROM.1>
-171.03962155,7.55722913,115.04068035,166.93318144,112.25432844,-4.02739367
-18.94122124,17.61764359,-14.72600267,-2.39375558,-0.68970106,-3.11293250

>  <Name>
F2710-0004

>  <RI>
4.41245e+07

>  <Rbt.Current_Directory>
/home/adria/Escritorio/rDock_CMTR_LC/2pxcA_model/inputs_sah

>  <Rbt.Executable>
rbdock ($Id: //depot/dev/client3/rdock/2013.1/src/exe/rbdock.cxx#4 $)

>  <Rbt.Library>
libRbt.so (2013.1, Build901 2013/11/27)

>  <Rbt.Parameter_File>
/home/adria/Escritorio/rDock_2013.1_src/data/scripts/dock.prm

>  <Rbt.Receptor>
sah_rdock.prm

>  <SCORE>
-68.9842

>  <SCORE.INTER>
-10.5742

>  <SCORE.INTER.CONST>
1

>  <SCORE.INTER.POLAR>
-0.195147

>  <SCORE.INTER.REPUL>
0

>  <SCORE.INTER.ROT>
6

>  <SCORE.INTER.VDW>
-21.3107

>  <SCORE.INTER.norm>
-0.391639

>  <SCORE.INTRA>
-58.4445

>  <SCORE.INTRA.DIHEDRAL>
-25.9899

>  <SCORE.INTRA.DIHEDRAL.0>
33.5804

>  <SCORE.INTRA.POLAR>
0

>  <SCORE.INTRA.POLAR.0>
0

>  <SCORE.INTRA.REPUL>
0

>  <SCORE.INTRA.REPUL.0>
0

>  <SCORE.INTRA.VDW>
-45.4496

>  <SCORE.INTRA.VDW.0>
47.7816

>  <SCORE.INTRA.norm>
-2.16461

>  <SCORE.RESTR>
0.00623408

>  <SCORE.RESTR.CAVITY>
0.00623408

>  <SCORE.RESTR.norm>
0.000230892

>  <SCORE.SYSTEM>
0.0283656

>  <SCORE.SYSTEM.CONST>
0

>  <SCORE.SYSTEM.DIHEDRAL>
6.03894

>  <SCORE.SYSTEM.POLAR>
-3.45864

>  <SCORE.SYSTEM.REPUL>
0.0479551

>  <SCORE.SYSTEM.VDW>
8.52848

>  <SCORE.SYSTEM.norm>
0.00105058

>  <SCORE.heavy>
27

>  <SCORE.norm>
-2.55497

$$$$
F2710-0004
  rDOCK(R)          3D
libRbt.so/2013.1/901 2013/11/27
 27 29  0  0  0  0  0  0  0  0999 V2000
  -19.8708   24.3536  -10.9017 C   0  0  0  0  0  0
  -21.0807   25.0931  -10.8585 O   0  0  0  0  0  0
  -22.2558   24.3755  -10.6464 C   0  0  0  0  0  0
  -23.0553   24.9461   -9.6474 C   0  0  0  0  0  0
  -24.3233   24.4460   -9.3908 C   0  0  0  0  0  0
  -24.8368   23.3828  -10.1473 C   0  0  0  0  0  0
  -26.4623   22.8919   -9.8641 Cl  0  0  0  0  0  0
  -23.9968   22.7191  -11.0684 C   0  0  0  0  0  0
  -22.7012   23.1942  -11.3160 C   0  0  0  0  0  0
  -21.9852   22.3984  -12.1977 N   0  0  0  0  0  0
  -22.6124   21.2789  -12.5113 C   0  0  0  0  0  0
  -24.2563   21.2734  -12.0341 S   0  0  0  0  0  0
  -22.1336   20.4353  -13.5680 N   0  0  0  0  0  0
  -23.2560   19.3426  -13.7507 C   0  0  0  0  0  0
  -23.7849   19.1312  -15.1452 C   0  0  0  0  0  0
  -24.7667   18.1206  -14.9788 N   0  0  0  0  0  0
  -26.1252   18.9533  -15.2276 C   0  0  0  0  0  0
  -24.0838   16.8266  -15.6827 C   0  0  0  0  0  0
  -20.8070   20.7861  -14.3684 C   0  0  0  0  0  0
  -20.3259   21.9847  -14.0857 O   0  0  0  0  0  0
  -19.8017   19.9717  -15.5928 C   0  0  0  0  0  0
  -18.5013   20.2991  -16.2266 C   0  0  0  0  0  0
  -17.4431   19.4357  -16.5445 C   0  0  0  0  0  0
  -16.0310   19.9548  -16.2212 C   0  0  0  0  0  0
  -17.8627   18.2174  -16.9606 C   0  0  0  0  0  0
  -19.2537   17.9290  -16.8453 C   0  0  0  0  0  0
  -20.1875   18.7442  -16.0997 C   0  0  0  0  0  0
  1  2  1  0  0  0
  2  3  1  0  0  0
  3  4  2  0  0  0
  3  9  1  0  0  0
  4  5  1  0  0  0
  5  6  2  0  0  0
  6  7  1  0  0  0
  6  8  1  0  0  0
  8  9  2  0  0  0
  8 12  1  0  0  0
  9 10  1  0  0  0
 10 11  2  0  0  0
 11 12  1  0  0  0
 11 13  1  0  0  0
 13 14  1  0  0  0
 13 19  1  0  0  0
 14 15  1  0  0  0
 15 16  1  0  0  0
 16 17  1  0  0  0
 16 18  1  0  0  0
 19 20  2  0  0  0
 19 21  1  0  0  0
 21 22  2  0  0  0
 21 27  1  0  0  0
 22 23  1  0  0  0
 23 24  1  0  0  0
 23 25  2  0  0  0
 25 26  1  0  0  0
 26 27  2  0  0  0
M  END
>  <CHROM.0>
-60.83320377,-74.70019099,76.02827055,63.09318360,-29.72471614,61.57639994
-156.48462703,-51.69257902

>  <CHROM.1>
131.68437285,-172.17683367,128.09152157,-179.39715716,109.61634383,-173.79344091
-22.27325146,21.21661969,-13.16933596,-2.19983914,-0.27739089,-2.41646871

>  <Name>
F2710-0004

>  <RI>
4.41245e+07

>  <Rbt.Current_Directory>
/home/adria/Escritorio/rDock_CMTR_LC/2pxcA_model/inputs_sah

>  <Rbt.Executable>
rbdock ($Id: //depot/dev/client3/rdock/2013.1/src/exe/rbdock.cxx#4 $)

>  <Rbt.Library>
libRbt.so (2013.1, Build901 2013/11/27)

>  <Rbt.Parameter_File>
/home/adria/Escritorio/rDock_2013.1_src/data/scripts/dock.prm

>  <Rbt.Receptor>
sah_rdock.prm

>  <SCORE>
-67.6058

>  <SCORE.INTER>
-4.23546

>  <SCORE.INTER.CONST>
1

>  <SCORE.INTER.POLAR>
0

>  <SCORE.INTER.REPUL>
0.0047599

>  <SCORE.INTER.ROT>
6

>  <SCORE.INTER.VDW>
-15.6593

>  <SCORE.INTER.norm>
-0.156869

>  <SCORE.INTRA>
-57.4821

>  <SCORE.INTRA.DIHEDRAL>
-23.9023

>  <SCORE.INTRA.DIHEDRAL.0>
33.5804

>  <SCORE.INTRA.POLAR>
0

>  <SCORE.INTRA.POLAR.0>
0

>  <SCORE.INTRA.REPUL>
0

>  <SCORE.INTRA.REPUL.0>
0

>  <SCORE.INTRA.VDW>
-45.5309

>  <SCORE.INTRA.VDW.0>
47.7816

>  <SCORE.INTRA.norm>
-2.12897

>  <SCORE.RESTR>
0

>  <SCORE.RESTR.CAVITY>
0

>  <SCORE.RESTR.norm>
0

>  <SCORE.SYSTEM>
-5.88826

>  <SCORE.SYSTEM.CONST>
0

>  <SCORE.SYSTEM.DIHEDRAL>
9.4749

>  <SCORE.SYSTEM.POLAR>
-3.83295

>  <SCORE.SYSTEM.REPUL>
0.0488614

>  <SCORE.SYSTEM.VDW>
2.16202

>  <SCORE.SYSTEM.norm>
-0.218084

>  <SCORE.heavy>
27

>  <SCORE.norm>
-2.50392

$$$$
F2710-0004
  rDOCK(R)          3D
libRbt.so/2013.1/901 2013/11/27
 27 29  0  0  0  0  0  0  0  0999 V2000
  -23.0827   16.7489  -12.9496 C   0  0  0  0  0  0
  -22.8995   17.4602  -11.7359 O   0  0  0  0  0  0
  -22.3542   18.7390  -11.8260 C   0  0  0  0  0  0
  -23.0809   19.6811  -11.0862 C   0  0  0  0  0  0
  -22.6132   20.9796  -10.9494 C   0  0  0  0  0  0
  -21.3916   21.3614  -11.5223 C   0  0  0  0  0  0
  -20.8065   22.9500  -11.2102 Cl  0  0  0  0  0  0
  -20.7139   20.4603  -12.3728 C   0  0  0  0  0  0
  -21.1914   19.1536  -12.5459 C   0  0  0  0  0  0
  -20.4507   18.4160  -13.4572 N   0  0  0  0  0  0
  -19.5379   19.1350  -14.0856 C   0  0  0  0  0  0
  -19.2816   20.6689  -13.3702 S   0  0  0  0  0  0
  -18.5374   18.5092  -14.9009 N   0  0  0  0  0  0
  -19.0148   17.0133  -15.0469 C   0  0  0  0  0  0
  -18.0294   16.0341  -15.6294 C   0  0  0  0  0  0
  -18.7926   14.8486  -15.7872 N   0  0  0  0  0  0
  -18.7406   14.6477  -17.3866 C   0  0  0  0  0  0
  -18.3379   13.9479  -14.5151 C   0  0  0  0  0  0
  -17.3595   19.3510  -15.5549 C   0  0  0  0  0  0
  -17.5117   20.6575  -15.4203 O   0  0  0  0  0  0
  -15.8746   18.9758  -16.4646 C   0  0  0  0  0  0
  -15.2236   17.7083  -16.8762 C   0  0  0  0  0  0
  -14.5923   17.4055  -18.0911 C   0  0  0  0  0  0
  -14.8997   16.0182  -18.6815 C   0  0  0  0  0  0
  -13.9186   18.4580  -18.6125 C   0  0  0  0  0  0
  -14.0901   19.7239  -17.9803 C   0  0  0  0  0  0
  -15.1080   19.9998  -16.9903 C   0  0  0  0  0  0
  1  2  1  0  0  0
  2  3  1  0  0  0
  3  4  2  0  0  0
  3  9  1  0  0  0
  4  5  1  0  0  0
  5  6  2  0  0  0
  6  7  1  0  0  0
  6  8  1  0  0  0
  8  9  2  0  0  0
  8 12  1  0  0  0
  9 10  1  0  0  0
 10 11  2  0  0  0
 11 12  1  0  0  0
 11 13  1  0  0  0
 13 14  1  0  0  0
 13 19  1  0  0  0
 14 15  1  0  0  0
 15 16  1  0  0  0
 16 17  1  0  0  0
 16 18  1  0  0  0
 19 20  2  0  0  0
 19 21  1  0  0  0
 21 22  2  0  0  0
 21 27  1  0  0  0
 22 23  1  0  0  0
 23 24  1  0  0  0
 23 25  2  0  0  0
 25 26  1  0  0  0
 26 27  2  0  0  0
M  END
>  <CHROM.0>
-173.71305441,63.65729218,-130.72710471,-61.78896169,168.33149052,-176.94733489
-38.14236279,-164.07436363

>  <CHROM.1>
131.79391882,11.25067483,-168.39804022,-172.87624244,117.44790855,-2.39476588
-18.94434232,18.74474848,-14.40701909,2.57808732,0.62588063,0.33649943

>  <Name>
F2710-0004

>  <RI>
4.41245e+07

>  <Rbt.Current_Directory>
/home/adria/Escritorio/rDock_CMTR_LC/2pxcA_model/inputs_sah

>  <Rbt.Executable>
rbdock ($Id: //depot/dev/client3/rdock/2013.1/src/exe/rbdock.cxx#4 $)

>  <Rbt.Library>
libRbt.so (2013.1, Build901 2013/11/27)

>  <Rbt.Parameter_File>
/home/adria/Escritorio/rDock_2013.1_src/data/scripts/dock.prm

>  <Rbt.Receptor>
sah_rdock.prm

>  <SCORE>
-72.9755

>  <SCORE.INTER>
-13.3764

>  <SCORE.INTER.CONST>
1

>  <SCORE.INTER.POLAR>
0

>  <SCORE.INTER.REPUL>
0

>  <SCORE.INTER.ROT>
6

>  <SCORE.INTER.VDW>
-24.7764

>  <SCORE.INTER.norm>
-0.495421

>  <SCORE.INTRA>
-58.4802

>  <SCORE.INTRA.DIHEDRAL>
-24.7139

>  <SCORE.INTRA.DIHEDRAL.0>
33.5804

>  <SCORE.INTRA.POLAR>
0

>  <SCORE.INTRA.POLAR.0>
0

>  <SCORE.INTRA.REPUL>
0

>  <SCORE.INTRA.REPUL.0>
0

>  <SCORE.INTRA.VDW>
-46.1232

>  <SCORE.INTRA.VDW.0>
47.7816

>  <SCORE.INTRA.norm>
-2.16593

>  <SCORE.RESTR>
0

>  <SCORE.RESTR.CAVITY>
0

>  <SCORE.RESTR.norm>
0

>  <SCORE.SYSTEM>
-1.11892

>  <SCORE.SYSTEM.CONST>
0

>  <SCORE.SYSTEM.DIHEDRAL>
5.68984

>  <SCORE.SYSTEM.POLAR>
-4.04633

>  <SCORE.SYSTEM.VDW>
9.79369

>  <SCORE.SYSTEM.norm>
-0.0414416

>  <SCORE.heavy>
27

>  <SCORE.norm>
-2.7028

$$$$
F2710-0004
  rDOCK(R)          3D
libRbt.so/2013.1/901 2013/11/27
 27 29  0  0  0  0  0  0  0  0999 V2000
  -24.3283   22.7494   -8.6498 C   0  0  0  0  0  0
  -24.1944   24.1138   -9.0143 O   0  0  0  0  0  0
  -22.9721   24.5096   -9.5531 C   0  0  0  0  0  0
  -22.4628   25.6573   -8.9313 C   0  0  0  0  0  0
  -21.1938   26.1216   -9.2440 C   0  0  0  0  0  0
  -20.3893   25.4330  -10.1632 C   0  0  0  0  0  0
  -18.7792   25.9887  -10.4131 Cl  0  0  0  0  0  0
  -20.9361   24.3512  -10.8880 C   0  0  0  0  0  0
  -22.2293   23.8899  -10.6048 C   0  0  0  0  0  0
  -22.6409   22.8646  -11.4431 N   0  0  0  0  0  0
  -21.7934   22.6298  -12.4289 C   0  0  0  0  0  0
  -20.2790   23.3972  -12.2100 S   0  0  0  0  0  0
  -21.9364   21.4740  -13.2662 N   0  0  0  0  0  0
  -23.3497   20.8806  -12.8954 C   0  0  0  0  0  0
  -23.3749   19.5046  -12.2830 C   0  0  0  0  0  0
  -22.5150   19.6242  -11.1609 N   0  0  0  0  0  0
  -23.5767   19.6394   -9.9470 C   0  0  0  0  0  0
  -21.2594   18.6747  -11.5584 C   0  0  0  0  0  0
  -20.8600   21.1230  -14.3806 C   0  0  0  0  0  0
  -19.9628   22.0770  -14.5616 O   0  0  0  0  0  0
  -20.5671   19.7586  -15.4878 C   0  0  0  0  0  0
  -19.5740   19.5114  -16.5614 C   0  0  0  0  0  0
  -18.8939   18.3233  -16.8648 C   0  0  0  0  0  0
  -17.3975   18.4697  -17.1922 C   0  0  0  0  0  0
  -19.6536   17.2180  -16.6790 C   0  0  0  0  0  0
  -20.9209   17.3922  -16.0504 C   0  0  0  0  0  0
  -21.3328   18.6111  -15.3895 C   0  0  0  0  0  0
  1  2  1  0  0  0
  2  3  1  0  0  0
  3  4  2  0  0  0
  3  9  1  0  0  0
  4  5  1  0  0  0
  5  6  2  0  0  0
  6  7  1  0  0  0
  6  8  1  0  0  0
  8  9  2  0  0  0
  8 12  1  0  0  0
  9 10  1  0  0  0
 10 11  2  0  0  0
 11 12  1  0  0  0
 11 13  1  0  0  0
 13 14  1  0  0  0
 13 19  1  0  0  0
 14 15  1  0  0  0
 15 16  1  0  0  0
 16 17  1  0  0  0
 16 18  1  0  0  0
 19 20  2  0  0  0
 19 21  1  0  0  0
 21 22  2  0  0  0
 21 27  1  0  0  0
 22 23  1  0  0  0
 23 24  1  0  0  0
 23 25  2  0  0  0
 25 26  1  0  0  0
 26 27  2  0  0  0
M  END
>  <CHROM.0>
-175.83249240,-70.28361809,75.37897033,62.56290964,167.84257321,-54.09184999
83.90761227,-162.91292384

>  <CHROM.1>
-130.51688372,10.52132079,-116.51039151,55.10266413,105.97271125,176.54180190
-21.22591741,21.91456744,-12.35258688,1.81707172,0.63731189,0.62929061

>  <Name>
F2710-0004

>  <RI>
4.41245e+07

>  <Rbt.Current_Directory>
/home/adria/Escritorio/rDock_CMTR_LC/2pxcA_model/inputs_sah

>  <Rbt.Executable>
rbdock ($Id: //depot/dev/client3/rdock/2013.1/src/exe/rbdock.cxx#4 $)

>  <Rbt.Library>
libRbt.so (2013.1, Build901 2013/11/27)

>  <Rbt.Parameter_File>
/home/adria/Escritorio/rDock_2013.1_src/data/scripts/dock.prm

>  <Rbt.Receptor>
sah_rdock.prm

>  <SCORE>
-73.5679

>  <SCORE.INTER>
-11.7588

>  <SCORE.INTER.CONST>
1

>  <SCORE.INTER.POLAR>
0

>  <SCORE.INTER.REPUL>
0.00132307

>  <SCORE.INTER.ROT>
6

>  <SCORE.INTER.VDW>
-23.1654

>  <SCORE.INTER.norm>
-0.43551

>  <SCORE.INTRA>
-59.5453

>  <SCORE.INTRA.DIHEDRAL>
-24.3373

>  <SCORE.INTRA.DIHEDRAL.0>
33.5804

>  <SCORE.INTRA.POLAR>
0

>  <SCORE.INTRA.POLAR.0>
0

>  <SCORE.INTRA.REPUL>
0.00417851

>  <SCORE.INTRA.REPUL.0>
0

>  <SCORE.INTRA.VDW>
-47.3976

>  <SCORE.INTRA.VDW.0>
47.7816

>  <SCORE.INTRA.norm>
-2.20538

>  <SCORE.RESTR>
0

>  <SCORE.RESTR.CAVITY>
0

>  <SCORE.RESTR.norm>
0

>  <SCORE.SYSTEM>
-2.26376

>  <SCORE.SYSTEM.CONST>
0

>  <SCORE.SYSTEM.DIHEDRAL>
3.62067

>  <SCORE.SYSTEM.POLAR>
-3.91996

>  <SCORE.SYSTEM.REPUL>
0.0333283

>  <SCORE.SYSTEM.VDW>
9.08715

>  <SCORE.SYSTEM.norm>
-0.0838429

>  <SCORE.heavy>
27

>  <SCORE.norm>
-2.72474

$$$$
F2710-0004
  rDOCK(R)          3D
libRbt.so/2013.1/901 2013/11/27
 27 29  0  0  0  0  0  0  0  0999 V2000
  -23.8505   20.5861   -9.1622 C   0  0  0  0  0  0
  -24.3064   21.9122   -9.3770 O   0  0  0  0  0  0
  -23.3647   22.8454   -9.8050 C   0  0  0  0  0  0
  -23.3868   24.0157   -9.0350 C   0  0  0  0  0  0
  -22.4317   25.0026   -9.2288 C   0  0  0  0  0  0
  -21.4116   24.8313  -10.1756 C   0  0  0  0  0  0
  -20.1857   26.0355  -10.2794 Cl  0  0  0  0  0  0
  -21.4513   23.7171  -11.0426 C   0  0  0  0  0  0
  -22.4297   22.7264  -10.8791 C   0  0  0  0  0  0
  -22.3705   21.7335  -11.8455 N   0  0  0  0  0  0
  -21.5029   21.9967  -12.8062 C   0  0  0  0  0  0
  -20.4530   23.2943  -12.4262 S   0  0  0  0  0  0
  -21.1451   20.9985  -13.7721 N   0  0  0  0  0  0
  -22.2995   19.9272  -13.6904 C   0  0  0  0  0  0
  -21.9116   18.4861  -13.8953 C   0  0  0  0  0  0
  -23.1553   17.8313  -14.0887 N   0  0  0  0  0  0
  -23.0546   17.4103  -15.6423 C   0  0  0  0  0  0
  -23.3577   17.0118  -12.7017 C   0  0  0  0  0  0
  -19.8970   21.1913  -14.7359 C   0  0  0  0  0  0
  -19.3690   22.4019  -14.6737 O   0  0  0  0  0  0
  -19.0312   20.1818  -15.9209 C   0  0  0  0  0  0
  -17.7343   20.3229  -16.6266 C   0  0  0  0  0  0
  -16.7806   19.3338  -16.9067 C   0  0  0  0  0  0
  -15.3117   19.7323  -16.6801 C   0  0  0  0  0  0
  -17.3353   18.1342  -17.2012 C   0  0  0  0  0  0
  -18.7414   17.9983  -17.0118 C   0  0  0  0  0  0
  -19.5571   18.9621  -16.3062 C   0  0  0  0  0  0
  1  2  1  0  0  0
  2  3  1  0  0  0
  3  4  2  0  0  0
  3  9  1  0  0  0
  4  5  1  0  0  0
  5  6  2  0  0  0
  6  7  1  0  0  0
  6  8  1  0  0  0
  8  9  2  0  0  0
  8 12  1  0  0  0
  9 10  1  0  0  0
 10 11  2  0  0  0
 11 12  1  0  0  0
 11 13  1  0  0  0
 13 14  1  0  0  0
 13 19  1  0  0  0
 14 15  1  0  0  0
 15 16  1  0  0  0
 16 17  1  0  0  0
 16 18  1  0  0  0
 19 20  2  0  0  0
 19 21  1  0  0  0
 21 22  2  0  0  0
 21 27  1  0  0  0
 22 23  1  0  0  0
 23 24  1  0  0  0
 23 25  2  0  0  0
 25 26  1  0  0  0
 26 27  2  0  0  0
M  END
>  <CHROM.0>
-177.10275432,-167.78458238,-9.22637972,63.41093751,167.99014322,60.45290079
-36.43403793,-165.03871612

>  <CHROM.1>
-130.01914869,18.65875745,-145.00570482,-166.37836552,111.58827532,-167.49296250
-20.93120120,21.37398914,-12.98682295,2.06204193,0.59057266,0.60560160

>  <Name>
F2710-0004

>  <RI>
4.41245e+07

>  <Rbt.Current_Directory>
/home/adria/Escritorio/rDock_CMTR_LC/2pxcA_model/inputs_sah

>  <Rbt.Executable>
rbdock ($Id: //depot/dev/client3/rdock/2013.1/src/exe/rbdock.cxx#4 $)

>  <Rbt.Library>
libRbt.so (2013.1, Build901 2013/11/27)

>  <Rbt.Parameter_File>
/home/adria/Escritorio/rDock_2013.1_src/data/scripts/dock.prm

>  <Rbt.Receptor>
sah_rdock.prm

>  <SCORE>
-71.5941

>  <SCORE.INTER>
-12.7101

>  <SCORE.INTER.CONST>
1

>  <SCORE.INTER.POLAR>
0

>  <SCORE.INTER.REPUL>
0

>  <SCORE.INTER.ROT>
6

>  <SCORE.INTER.VDW>
-24.1101

>  <SCORE.INTER.norm>
-0.470745

>  <SCORE.INTRA>
-57.9876

>  <SCORE.INTRA.DIHEDRAL>
-23.6749

>  <SCORE.INTRA.DIHEDRAL.0>
33.5804

>  <SCORE.INTRA.POLAR>
0

>  <SCORE.INTRA.POLAR.0>
0

>  <SCORE.INTRA.REPUL>
0

>  <SCORE.INTRA.REPUL.0>
0

>  <SCORE.INTRA.VDW>
-46.1502

>  <SCORE.INTRA.VDW.0>
47.7816

>  <SCORE.INTRA.norm>
-2.14769

>  <SCORE.RESTR>
0

>  <SCORE.RESTR.CAVITY>
0

>  <SCORE.RESTR.norm>
0

>  <SCORE.SYSTEM>
-0.896372

>  <SCORE.SYSTEM.CONST>
0

>  <SCORE.SYSTEM.DIHEDRAL>
6.41835

>  <SCORE.SYSTEM.POLAR>
-4.18669

>  <SCORE.SYSTEM.VDW>
10.1292

>  <SCORE.SYSTEM.norm>
-0.033199

>  <SCORE.heavy>
27

>  <SCORE.norm>
-2.65163

$$$$
F2710-0004
  rDOCK(R)          3D
libRbt.so/2013.1/901 2013/11/27
 27 29  0  0  0  0  0  0  0  0999 V2000
  -22.0102   24.4599  -12.8392 C   0  0  0  0  0  0
  -22.1958   24.8976  -11.5025 O   0  0  0  0  0  0
  -22.8587   24.0301  -10.6371 C   0  0  0  0  0  0
  -23.5529   24.7115   -9.6288 C   0  0  0  0  0  0
  -24.3787   24.0209   -8.7541 C   0  0  0  0  0  0
  -24.5561   22.6361   -8.8846 C   0  0  0  0  0  0
  -25.6903   21.8588   -7.8488 Cl  0  0  0  0  0  0
  -23.7678   21.9212   -9.8131 C   0  0  0  0  0  0
  -22.9050   22.6025  -10.6831 C   0  0  0  0  0  0
  -22.1582   21.7557  -11.4884 N   0  0  0  0  0  0
  -22.3016   20.4809  -11.1729 C   0  0  0  0  0  0
  -23.6119   20.1956  -10.1090 S   0  0  0  0  0  0
  -21.7838   19.4472  -12.0218 N   0  0  0  0  0  0
  -22.4665   18.1226  -11.5056 C   0  0  0  0  0  0
  -23.8108   17.7734  -12.0887 C   0  0  0  0  0  0
  -23.6045   17.8821  -13.4881 N   0  0  0  0  0  0
  -23.8586   16.3628  -13.9658 C   0  0  0  0  0  0
  -24.2817   19.3132  -13.8484 C   0  0  0  0  0  0
  -20.8548   19.7871  -13.2648 C   0  0  0  0  0  0
  -20.7754   21.0817  -13.5212 O   0  0  0  0  0  0
  -19.8994   18.8482  -14.4390 C   0  0  0  0  0  0
  -18.9842   19.2258  -15.5434 C   0  0  0  0  0  0
  -17.7712   18.6283  -15.9151 C   0  0  0  0  0  0
  -16.6258   19.5938  -16.2668 C   0  0  0  0  0  0
  -17.7776   17.2828  -15.7639 C   0  0  0  0  0  0
  -18.8986   16.7031  -15.1015 C   0  0  0  0  0  0
  -19.8909   17.4666  -14.3771 C   0  0  0  0  0  0
  1  2  1  0  0  0
  2  3  1  0  0  0
  3  4  2  0  0  0
  3  9  1  0  0  0
  4  5  1  0  0  0
  5  6  2  0  0  0
  6  7  1  0  0  0
  6  8  1  0  0  0
  8  9  2  0  0  0
  8 12  1  0  0  0
  9 10  1  0  0  0
 10 11  2  0  0  0
 11 12  1  0  0  0
 11 13  1  0  0  0
 13 14  1  0  0  0
 13 19  1  0  0  0
 14 15  1  0  0  0
 15 16  1  0  0  0
 16 17  1  0  0  0
 16 18  1  0  0  0
 19 20  2  0  0  0
 19 21  1  0  0  0
 21 22  2  0  0  0
 21 27  1  0  0  0
 22 23  1  0  0  0
 23 24  1  0  0  0
 23 25  2  0  0  0
 25 26  1  0  0  0
 26 27  2  0  0  0
M  END
>  <CHROM.0>
-62.96909121,-75.12172500,-47.76879563,-55.62119325,168.61202386,61.86510167
-157.65670301,-164.52815967

>  <CHROM.1>
-150.94595733,-165.99552401,87.20208625,50.00289193,116.64434214,-176.00257121
-22.19146346,20.47788150,-12.07433048,-2.37805050,-0.66803842,-2.80873786

>  <Name>
F2710-0004

>  <RI>
4.41245e+07

>  <Rbt.Current_Directory>
/home/adria/Escritorio/rDock_CMTR_LC/2pxcA_model/inputs_sah

>  <Rbt.Executable>
rbdock ($Id: //depot/dev/client3/rdock/2013.1/src/exe/rbdock.cxx#4 $)

>  <Rbt.Library>
libRbt.so (2013.1, Build901 2013/11/27)

>  <Rbt.Parameter_File>
/home/adria/Escritorio/rDock_2013.1_src/data/scripts/dock.prm

>  <Rbt.Receptor>
sah_rdock.prm

>  <SCORE>
-66.1645

>  <SCORE.INTER>
-5.57574

>  <SCORE.INTER.CONST>
1

>  <SCORE.INTER.POLAR>
0

>  <SCORE.INTER.REPUL>
0.0115031

>  <SCORE.INTER.ROT>
6

>  <SCORE.INTER.VDW>
-17.0333

>  <SCORE.INTER.norm>
-0.206509

>  <SCORE.INTRA>
-58.0234

>  <SCORE.INTRA.DIHEDRAL>
-26.3662

>  <SCORE.INTRA.DIHEDRAL.0>
33.5804

>  <SCORE.INTRA.POLAR>
0

>  <SCORE.INTRA.POLAR.0>
0

>  <SCORE.INTRA.REPUL>
0

>  <SCORE.INTRA.REPUL.0>
0

>  <SCORE.INTRA.VDW>
-44.8403

>  <SCORE.INTRA.VDW.0>
47.7816

>  <SCORE.INTRA.norm>
-2.14902

>  <SCORE.RESTR>
0

>  <SCORE.RESTR.CAVITY>
0

>  <SCORE.RESTR.norm>
0

>  <SCORE.SYSTEM>
-2.56539

>  <SCORE.SYSTEM.CONST>
0

>  <SCORE.SYSTEM.DIHEDRAL>
3.63413

>  <SCORE.SYSTEM.POLAR>
-3.97622

>  <SCORE.SYSTEM.REPUL>
0.0421023

>  <SCORE.SYSTEM.VDW>
8.92616

>  <SCORE.SYSTEM.norm>
-0.0950145

>  <SCORE.heavy>
27

>  <SCORE.norm>
-2.45054

$$$$
F2710-0004
  rDOCK(R)          3D
libRbt.so/2013.1/901 2013/11/27
 27 29  0  0  0  0  0  0  0  0999 V2000
  -22.1097   17.0612  -13.1227 C   0  0  0  0  0  0
  -20.7278   16.7479  -13.1920 O   0  0  0  0  0  0
  -19.8898   17.6990  -13.7701 C   0  0  0  0  0  0
  -18.9358   17.1224  -14.6189 C   0  0  0  0  0  0
  -18.1012   17.9228  -15.3847 C   0  0  0  0  0  0
  -18.2199   19.3195  -15.3453 C   0  0  0  0  0  0
  -17.2415   20.2508  -16.4125 Cl  0  0  0  0  0  0
  -19.0881   19.9145  -14.4035 C   0  0  0  0  0  0
  -19.9157   19.1176  -13.6001 C   0  0  0  0  0  0
  -20.6612   19.8485  -12.6873 N   0  0  0  0  0  0
  -20.3344   21.1282  -12.6581 C   0  0  0  0  0  0
  -19.3464   21.5993  -13.9742 S   0  0  0  0  0  0
  -21.1342   22.0785  -11.9406 N   0  0  0  0  0  0
  -20.1950   23.3305  -11.7472 C   0  0  0  0  0  0
  -20.8382   24.5980  -11.2483 C   0  0  0  0  0  0
  -20.2221   24.8097   -9.9880 N   0  0  0  0  0  0
  -18.8620   25.5604  -10.4212 C   0  0  0  0  0  0
  -21.4739   25.1938   -9.0279 C   0  0  0  0  0  0
  -22.6694   21.8046  -11.6376 C   0  0  0  0  0  0
  -23.1437   20.7377  -12.2578 O   0  0  0  0  0  0
  -23.9434   22.6006  -10.6803 C   0  0  0  0  0  0
  -25.3979   22.8039  -10.8874 C   0  0  0  0  0  0
  -26.4337   22.7224   -9.9457 C   0  0  0  0  0  0
  -27.7080   21.9945  -10.4086 C   0  0  0  0  0  0
  -26.0747   23.1853   -8.7250 C   0  0  0  0  0  0
  -24.7002   23.5037   -8.5232 C   0  0  0  0  0  0
  -23.6443   23.1382   -9.4417 C   0  0  0  0  0  0
  1  2  1  0  0  0
  2  3  1  0  0  0
  3  4  2  0  0  0
  3  9  1  0  0  0
  4  5  1  0  0  0
  5  6  2  0  0  0
  6  7  1  0  0  0
  6  8  1  0  0  0
  8  9  2  0  0  0
  8 12  1  0  0  0
  9 10  1  0  0  0
 10 11  2  0  0  0
 11 12  1  0  0  0
 11 13  1  0  0  0
 13 14  1  0  0  0
 13 19  1  0  0  0
 14 15  1  0  0  0
 15 16  1  0  0  0
 16 17  1  0  0  0
 16 18  1  0  0  0
 19 20  2  0  0  0
 19 21  1  0  0  0
 21 22  2  0  0  0
 21 27  1  0  0  0
 22 23  1  0  0  0
 23 24  1  0  0  0
 23 25  2  0  0  0
 25 26  1  0  0  0
 26 27  2  0  0  0
M  END
>  <CHROM.0>
-61.18351508,-75.04914380,72.60664140,62.64684374,-29.74064237,63.03423243
82.39420815,-162.27706941

>  <CHROM.1>
-137.86085028,161.84551195,168.89982394,115.99812028,83.76241238,143.04368290
-21.19840698,21.29888805,-12.36888304,0.78027894,-0.43079292,-2.66782702

>  <Name>
F2710-0004

>  <RI>
4.41245e+07

>  <Rbt.Current_Directory>
/home/adria/Escritorio/rDock_CMTR_LC/2pxcA_model/inputs_sah

>  <Rbt.Executable>
rbdock ($Id: //depot/dev/client3/rdock/2013.1/src/exe/rbdock.cxx#4 $)

>  <Rbt.Library>
libRbt.so (2013.1, Build901 2013/11/27)

>  <Rbt.Parameter_File>
/home/adria/Escritorio/rDock_2013.1_src/data/scripts/dock.prm

>  <Rbt.Receptor>
sah_rdock.prm

>  <SCORE>
-67.2687

>  <SCORE.INTER>
-12.9113

>  <SCORE.INTER.CONST>
1

>  <SCORE.INTER.POLAR>
-0.824621

>  <SCORE.INTER.REPUL>
0

>  <SCORE.INTER.ROT>
6

>  <SCORE.INTER.VDW>
-21.5076

>  <SCORE.INTER.norm>
-0.478198

>  <SCORE.INTRA>
-46.7659

>  <SCORE.INTRA.DIHEDRAL>
-1.7748

>  <SCORE.INTRA.DIHEDRAL.0>
33.5804

>  <SCORE.INTRA.POLAR>
0

>  <SCORE.INTRA.POLAR.0>
0

>  <SCORE.INTRA.REPUL>
0

>  <SCORE.INTRA.REPUL.0>
0

>  <SCORE.INTRA.VDW>
-45.8785

>  <SCORE.INTRA.VDW.0>
47.7816

>  <SCORE.INTRA.norm>
-1.73207

>  <SCORE.RESTR>
0.180592

>  <SCORE.RESTR.CAVITY>
0.180592

>  <SCORE.RESTR.norm>
0.0066886

>  <SCORE.SYSTEM>
-7.77209

>  <SCORE.SYSTEM.CONST>
0

>  <SCORE.SYSTEM.DIHEDRAL>
6.69906

>  <SCORE.SYSTEM.POLAR>
-4.08535

>  <SCORE.SYSTEM.REPUL>
0.0419877

>  <SCORE.SYSTEM.VDW>
2.55863

>  <SCORE.SYSTEM.norm>
-0.287855

>  <SCORE.heavy>
27

>  <SCORE.norm>
-2.49143

$$$$
F2710-0004
  rDOCK(R)          3D
libRbt.so/2013.1/901 2013/11/27
 27 29  0  0  0  0  0  0  0  0999 V2000
  -23.8071   20.6477   -9.0138 C   0  0  0  0  0  0
  -24.3455   21.9442   -9.2180 O   0  0  0  0  0  0
  -23.5034   22.8993   -9.7832 C   0  0  0  0  0  0
  -23.7014   24.1741   -9.2366 C   0  0  0  0  0  0
  -22.8633   25.2243   -9.5808 C   0  0  0  0  0  0
  -21.7869   25.0199  -10.4559 C   0  0  0  0  0  0
  -20.7105   26.3322  -10.7438 Cl  0  0  0  0  0  0
  -21.6522   23.7752  -11.1094 C   0  0  0  0  0  0
  -22.5115   22.7130  -10.7949 C   0  0  0  0  0  0
  -22.2887   21.5817  -11.5655 N   0  0  0  0  0  0
  -21.4147   21.7799  -12.5361 C   0  0  0  0  0  0
  -20.5468   23.2459  -12.3694 S   0  0  0  0  0  0
  -20.8952   20.6812  -13.2979 N   0  0  0  0  0  0
  -21.8728   19.4819  -12.9930 C   0  0  0  0  0  0
  -23.0548   19.3120  -13.9111 C   0  0  0  0  0  0
  -23.8102   18.2820  -13.2935 N   0  0  0  0  0  0
  -25.1302   19.0872  -12.8350 C   0  0  0  0  0  0
  -23.5385   17.0017  -14.2544 C   0  0  0  0  0  0
  -19.6785   20.8736  -14.3010 C   0  0  0  0  0  0
  -19.3431   22.1398  -14.4813 O   0  0  0  0  0  0
  -18.6522   19.7995  -15.2840 C   0  0  0  0  0  0
  -18.5039   18.3261  -15.3674 C   0  0  0  0  0  0
  -18.3291   17.5294  -16.5080 C   0  0  0  0  0  0
  -19.1474   16.2269  -16.5505 C   0  0  0  0  0  0
  -17.5621   18.1222  -17.4533 C   0  0  0  0  0  0
  -17.2082   19.4876  -17.2485 C   0  0  0  0  0  0
  -17.8081   20.3338  -16.2404 C   0  0  0  0  0  0
  1  2  1  0  0  0
  2  3  1  0  0  0
  3  4  2  0  0  0
  3  9  1  0  0  0
  4  5  1  0  0  0
  5  6  2  0  0  0
  6  7  1  0  0  0
  6  8  1  0  0  0
  8  9  2  0  0  0
  8 12  1  0  0  0
  9 10  1  0  0  0
 10 11  2  0  0  0
 11 12  1  0  0  0
 11 13  1  0  0  0
 13 14  1  0  0  0
 13 19  1  0  0  0
 14 15  1  0  0  0
 15 16  1  0  0  0
 16 17  1  0  0  0
 16 18  1  0  0  0
 19 20  2  0  0  0
 19 21  1  0  0  0
 21 22  2  0  0  0
 21 27  1  0  0  0
 22 23  1  0  0  0
 23 24  1  0  0  0
 23 25  2  0  0  0
 25 26  1  0  0  0
 26 27  2  0  0  0
M  END
>  <CHROM.0>
-58.14840902,-75.28405037,76.86903084,66.15835546,168.67725543,62.03641071
-34.34683443,-164.71536582

>  <CHROM.1>
-142.80225847,15.74630898,90.65740431,-173.15129884,112.61489326,-8.31865889
-21.24617006,21.30085108,-12.82102515,2.04735810,0.58955815,0.51594072

>  <Name>
F2710-0004

>  <RI>
4.41245e+07

>  <Rbt.Current_Directory>
/home/adria/Escritorio/rDock_CMTR_LC/2pxcA_model/inputs_sah

>  <Rbt.Executable>
rbdock ($Id: //depot/dev/client3/rdock/2013.1/src/exe/rbdock.cxx#4 $)

>  <Rbt.Library>
libRbt.so (2013.1, Build901 2013/11/27)

>  <Rbt.Parameter_File>
/home/adria/Escritorio/rDock_2013.1_src/data/scripts/dock.prm

>  <Rbt.Receptor>
sah_rdock.prm

>  <SCORE>
-70.2211

>  <SCORE.INTER>
-9.03665

>  <SCORE.INTER.CONST>
1

>  <SCORE.INTER.POLAR>
0

>  <SCORE.INTER.REPUL>
0.00327897

>  <SCORE.INTER.ROT>
6

>  <SCORE.INTER.VDW>
-20.453

>  <SCORE.INTER.norm>
-0.334691

>  <SCORE.INTRA>
-58.5592

>  <SCORE.INTRA.DIHEDRAL>
-25.622

>  <SCORE.INTRA.DIHEDRAL.0>
33.5804

>  <SCORE.INTRA.POLAR>
0

>  <SCORE.INTRA.POLAR.0>
0

>  <SCORE.INTRA.REPUL>
0

>  <SCORE.INTRA.REPUL.0>
0

>  <SCORE.INTRA.VDW>
-45.7482

>  <SCORE.INTRA.VDW.0>
47.7816

>  <SCORE.INTRA.norm>
-2.16886

>  <SCORE.RESTR>
0

>  <SCORE.RESTR.CAVITY>
0

>  <SCORE.RESTR.norm>
0

>  <SCORE.SYSTEM>
-2.62527

>  <SCORE.SYSTEM.CONST>
0

>  <SCORE.SYSTEM.DIHEDRAL>
4.30479

>  <SCORE.SYSTEM.POLAR>
-4.0332

>  <SCORE.SYSTEM.REPUL>
0.0423567

>  <SCORE.SYSTEM.VDW>
8.72342

>  <SCORE.SYSTEM.norm>
-0.097232

>  <SCORE.heavy>
27

>  <SCORE.norm>
-2.60078

$$$$
F2710-0004
  rDOCK(R)          3D
libRbt.so/2013.1/901 2013/11/27
 27 29  0  0  0  0  0  0  0  0999 V2000
  -15.0810   20.2983  -16.6103 C   0  0  0  0  0  0
  -16.2599   19.9620  -17.3241 O   0  0  0  0  0  0
  -16.9201   18.7952  -16.9450 C   0  0  0  0  0  0
  -16.5429   17.6931  -17.7235 C   0  0  0  0  0  0
  -16.9959   16.4210  -17.4069 C   0  0  0  0  0  0
  -17.8122   16.2134  -16.2857 C   0  0  0  0  0  0
  -18.2366   14.5965  -15.8750 Cl  0  0  0  0  0  0
  -18.3007   17.3280  -15.5689 C   0  0  0  0  0  0
  -17.8762   18.6232  -15.8969 C   0  0  0  0  0  0
  -18.4929   19.6095  -15.1418 N   0  0  0  0  0  0
  -19.4593   19.1434  -14.3711 C   0  0  0  0  0  0
  -19.4572   17.4359  -14.2495 S   0  0  0  0  0  0
  -20.0643   19.9678  -13.3652 N   0  0  0  0  0  0
  -20.5770   18.9557  -12.2699 C   0  0  0  0  0  0
  -22.0648   18.8874  -12.0440 C   0  0  0  0  0  0
  -22.4064   20.2142  -11.6758 N   0  0  0  0  0  0
  -23.4315   20.6171  -12.8539 C   0  0  0  0  0  0
  -22.5137   20.1296  -10.0579 C   0  0  0  0  0  0
  -19.9903   21.5528  -13.4418 C   0  0  0  0  0  0
  -19.1843   21.9945  -14.3923 O   0  0  0  0  0  0
  -20.7078   22.9096  -12.5376 C   0  0  0  0  0  0
  -20.4338   23.5075  -11.2082 C   0  0  0  0  0  0
  -20.4212   24.8621  -10.8460 C   0  0  0  0  0  0
  -19.2685   25.3017   -9.9263 C   0  0  0  0  0  0
  -21.3632   25.5898  -11.4913 C   0  0  0  0  0  0
  -22.0824   24.9472  -12.5407 C   0  0  0  0  0  0
  -21.7075   23.6727  -13.1128 C   0  0  0  0  0  0
  1  2  1  0  0  0
  2  3  1  0  0  0
  3  4  2  0  0  0
  3  9  1  0  0  0
  4  5  1  0  0  0
  5  6  2  0  0  0
  6  7  1  0  0  0
  6  8  1  0  0  0
  8  9  2  0  0  0
  8 12  1  0  0  0
  9 10  1  0  0  0
 10 11  2  0  0  0
 11 12  1  0  0  0
 11 13  1  0  0  0
 13 14  1  0  0  0
 13 19  1  0  0  0
 14 15  1  0  0  0
 15 16  1  0  0  0
 16 17  1  0  0  0
 16 18  1  0  0  0
 19 20  2  0  0  0
 19 21  1  0  0  0
 21 22  2  0  0  0
 21 27  1  0  0  0
 22 23  1  0  0  0
 23 24  1  0  0  0
 23 25  2  0  0  0
 25 26  1  0  0  0
 26 27  2  0  0  0
M  END
>  <CHROM.0>
-177.65018310,64.03009888,72.90611119,65.61504429,168.22987963,-60.67283939
-157.25039211,-159.07077961

>  <CHROM.1>
-94.82666712,-152.92682846,-116.15701992,-58.83622806,118.90852675,75.69274871
-19.47651983,19.91813551,-13.99580624,-1.00151439,0.69762351,0.24072342

>  <Name>
F2710-0004

>  <RI>
4.41245e+07

>  <Rbt.Current_Directory>
/home/adria/Escritorio/rDock_CMTR_LC/2pxcA_model/inputs_sah

>  <Rbt.Executable>
rbdock ($Id: //depot/dev/client3/rdock/2013.1/src/exe/rbdock.cxx#4 $)

>  <Rbt.Library>
libRbt.so (2013.1, Build901 2013/11/27)

>  <Rbt.Parameter_File>
/home/adria/Escritorio/rDock_2013.1_src/data/scripts/dock.prm

>  <Rbt.Receptor>
sah_rdock.prm

>  <SCORE>
-71.309

>  <SCORE.INTER>
-19.0227

>  <SCORE.INTER.CONST>
1

>  <SCORE.INTER.POLAR>
-0.765801

>  <SCORE.INTER.REPUL>
0

>  <SCORE.INTER.ROT>
6

>  <SCORE.INTER.VDW>
-27.8189

>  <SCORE.INTER.norm>
-0.704543

>  <SCORE.INTRA>
-50.0662

>  <SCORE.INTRA.DIHEDRAL>
-9.05438

>  <SCORE.INTRA.DIHEDRAL.0>
33.5804

>  <SCORE.INTRA.POLAR>
0

>  <SCORE.INTRA.POLAR.0>
0

>  <SCORE.INTRA.REPUL>
0

>  <SCORE.INTRA.REPUL.0>
0

>  <SCORE.INTRA.VDW>
-45.539

>  <SCORE.INTRA.VDW.0>
47.7816

>  <SCORE.INTRA.norm>
-1.8543

>  <SCORE.RESTR>
0

>  <SCORE.RESTR.CAVITY>
0

>  <SCORE.RESTR.norm>
0

>  <SCORE.SYSTEM>
-2.22019

>  <SCORE.SYSTEM.CONST>
0

>  <SCORE.SYSTEM.DIHEDRAL>
3.06626

>  <SCORE.SYSTEM.POLAR>
-3.68897

>  <SCORE.SYSTEM.VDW>
8.78918

>  <SCORE.SYSTEM.norm>
-0.0822293

>  <SCORE.heavy>
27

>  <SCORE.norm>
-2.64108

$$$$
F2710-0004
  rDOCK(R)          3D
libRbt.so/2013.1/901 2013/11/27
 27 29  0  0  0  0  0  0  0  0999 V2000
  -18.8172   15.4529  -17.2046 C   0  0  0  0  0  0
  -18.5500   16.0092  -15.9272 O   0  0  0  0  0  0
  -17.8406   17.2077  -15.8928 C   0  0  0  0  0  0
  -16.5095   17.0505  -16.3007 C   0  0  0  0  0  0
  -15.6872   18.1563  -16.4576 C   0  0  0  0  0  0
  -16.1832   19.4499  -16.2411 C   0  0  0  0  0  0
  -15.1493   20.7854  -16.5745 Cl  0  0  0  0  0  0
  -17.4814   19.6140  -15.7098 C   0  0  0  0  0  0
  -18.3137   18.5025  -15.5163 C   0  0  0  0  0  0
  -19.5296   18.8238  -14.9318 N   0  0  0  0  0  0
  -19.6000   20.0841  -14.5422 C   0  0  0  0  0  0
  -18.3338   21.0521  -15.1667 S   0  0  0  0  0  0
  -20.8441   20.6571  -14.1162 N   0  0  0  0  0  0
  -21.8282   19.4316  -13.9863 C   0  0  0  0  0  0
  -23.0200   19.6038  -13.0813 C   0  0  0  0  0  0
  -23.6588   18.3379  -13.1283 N   0  0  0  0  0  0
  -23.3854   17.7883  -11.6369 C   0  0  0  0  0  0
  -24.9954   18.6340  -14.0014 C   0  0  0  0  0  0
  -20.9615   22.1986  -13.7508 C   0  0  0  0  0  0
  -19.7938   22.8171  -13.7066 O   0  0  0  0  0  0
  -22.2879   23.3182  -13.3503 C   0  0  0  0  0  0
  -23.7608   23.1660  -13.2664 C   0  0  0  0  0  0
  -24.6423   23.7094  -12.3209 C   0  0  0  0  0  0
  -25.7377   22.7624  -11.8002 C   0  0  0  0  0  0
  -24.2859   24.9528  -11.9205 C   0  0  0  0  0  0
  -23.0194   25.4427  -12.3536 C   0  0  0  0  0  0
  -22.0057   24.6192  -12.9753 C   0  0  0  0  0  0
  1  2  1  0  0  0
  2  3  1  0  0  0
  3  4  2  0  0  0
  3  9  1  0  0  0
  4  5  1  0  0  0
  5  6  2  0  0  0
  6  7  1  0  0  0
  6  8  1  0  0  0
  8  9  2  0  0  0
  8 12  1  0  0  0
  9 10  1  0  0  0
 10 11  2  0  0  0
 11 12  1  0  0  0
 11 13  1  0  0  0
 13 14  1  0  0  0
 13 19  1  0  0  0
 14 15  1  0  0  0
 15 16  1  0  0  0
 16 17  1  0  0  0
 16 18  1  0  0  0
 19 20  2  0  0  0
 19 21  1  0  0  0
 21 22  2  0  0  0
 21 27  1  0  0  0
 22 23  1  0  0  0
 23 24  1  0  0  0
 23 25  2  0  0  0
 25 26  1  0  0  0
 26 27  2  0  0  0
M  END
>  <CHROM.0>
42.12309076,-75.23710314,-47.70347745,64.96892223,-30.53949897,-177.27842566
83.40786854,-167.87671585

>  <CHROM.1>
-68.61618985,10.39782856,157.24989510,-177.40702342,110.66789454,-2.14584412
-20.25592320,20.35015389,-14.44142331,0.56330636,-0.39264086,-2.96829759

>  <Name>
F2710-0004

>  <RI>
4.41245e+07

>  <Rbt.Current_Directory>
/home/adria/Escritorio/rDock_CMTR_LC/2pxcA_model/inputs_sah

>  <Rbt.Executable>
rbdock ($Id: //depot/dev/client3/rdock/2013.1/src/exe/rbdock.cxx#4 $)

>  <Rbt.Library>
libRbt.so (2013.1, Build901 2013/11/27)

>  <Rbt.Parameter_File>
/home/adria/Escritorio/rDock_2013.1_src/data/scripts/dock.prm

>  <Rbt.Receptor>
sah_rdock.prm

>  <SCORE>
-68.3896

>  <SCORE.INTER>
-8.62055

>  <SCORE.INTER.CONST>
1

>  <SCORE.INTER.POLAR>
0

>  <SCORE.INTER.REPUL>
0.00207365

>  <SCORE.INTER.ROT>
6

>  <SCORE.INTER.VDW>
-20.0309

>  <SCORE.INTER.norm>
-0.31928

>  <SCORE.INTRA>
-56.6286

>  <SCORE.INTRA.DIHEDRAL>
-22.8751

>  <SCORE.INTRA.DIHEDRAL.0>
33.5804

>  <SCORE.INTRA.POLAR>
0

>  <SCORE.INTRA.POLAR.0>
0

>  <SCORE.INTRA.REPUL>
0

>  <SCORE.INTRA.REPUL.0>
0

>  <SCORE.INTRA.VDW>
-45.1911

>  <SCORE.INTRA.VDW.0>
47.7816

>  <SCORE.INTRA.norm>
-2.09736

>  <SCORE.RESTR>
0

>  <SCORE.RESTR.CAVITY>
0

>  <SCORE.RESTR.norm>
0

>  <SCORE.SYSTEM>
-3.1404

>  <SCORE.SYSTEM.CONST>
0

>  <SCORE.SYSTEM.DIHEDRAL>
7.95219

>  <SCORE.SYSTEM.POLAR>
-3.93721

>  <SCORE.SYSTEM.REPUL>
0.158024

>  <SCORE.SYSTEM.VDW>
5.47991

>  <SCORE.SYSTEM.norm>
-0.116311

>  <SCORE.heavy>
27

>  <SCORE.norm>
-2.53295

$$$$
F2710-0004
  rDOCK(R)          3D
libRbt.so/2013.1/901 2013/11/27
 27 29  0  0  0  0  0  0  0  0999 V2000
  -24.3081   21.0423   -8.9989 C   0  0  0  0  0  0
  -24.7426   22.2453   -9.6125 O   0  0  0  0  0  0
  -23.7570   23.1419  -10.0196 C   0  0  0  0  0  0
  -23.8783   24.3881   -9.3908 C   0  0  0  0  0  0
  -22.9089   25.3636   -9.5711 C   0  0  0  0  0  0
  -21.7778   25.1074  -10.3594 C   0  0  0  0  0  0
  -20.5516   26.3129  -10.4411 Cl  0  0  0  0  0  0
  -21.7058   23.9055  -11.0976 C   0  0  0  0  0  0
  -22.6944   22.9226  -10.9496 C   0  0  0  0  0  0
  -22.5122   21.8320  -11.7868 N   0  0  0  0  0  0
  -21.5317   22.0038  -12.6552 C   0  0  0  0  0  0
  -20.5410   23.3517  -12.2918 S   0  0  0  0  0  0
  -21.0532   20.9129  -13.4542 N   0  0  0  0  0  0
  -22.1874   19.8208  -13.3651 C   0  0  0  0  0  0
  -21.9752   18.6918  -12.3907 C   0  0  0  0  0  0
  -23.1993   17.9761  -12.4396 N   0  0  0  0  0  0
  -22.8040   16.7349  -13.3906 C   0  0  0  0  0  0
  -23.7623   18.1088  -10.9224 C   0  0  0  0  0  0
  -19.7145   21.0340  -14.3009 C   0  0  0  0  0  0
  -19.2211   22.2603  -14.3287 O   0  0  0  0  0  0
  -18.7075   19.9233  -15.2628 C   0  0  0  0  0  0
  -18.6382   18.4458  -15.3729 C   0  0  0  0  0  0
  -18.4581   17.6635  -16.5226 C   0  0  0  0  0  0
  -19.3452   16.4107  -16.6294 C   0  0  0  0  0  0
  -17.6183   18.2305  -17.4207 C   0  0  0  0  0  0
  -17.1981   19.5693  -17.1702 C   0  0  0  0  0  0
  -17.7936   20.4279  -16.1700 C   0  0  0  0  0  0
  1  2  1  0  0  0
  2  3  1  0  0  0
  3  4  2  0  0  0
  3  9  1  0  0  0
  4  5  1  0  0  0
  5  6  2  0  0  0
  6  7  1  0  0  0
  6  8  1  0  0  0
  8  9  2  0  0  0
  8 12  1  0  0  0
  9 10  1  0  0  0
 10 11  2  0  0  0
 11 12  1  0  0  0
 11 13  1  0  0  0
 13 14  1  0  0  0
 13 19  1  0  0  0
 14 15  1  0  0  0
 15 16  1  0  0  0
 16 17  1  0  0  0
 16 18  1  0  0  0
 19 20  2  0  0  0
 19 21  1  0  0  0
 21 22  2  0  0  0
 21 27  1  0  0  0
 22 23  1  0  0  0
 23 24  1  0  0  0
 23 25  2  0  0  0
 25 26  1  0  0  0
 26 27  2  0  0  0
M  END
>  <CHROM.0>
-60.91449029,-71.98285562,110.38184236,62.74517912,-30.52491442,-177.52110692
-36.31338461,-161.76290219

>  <CHROM.1>
-120.15132708,17.03299441,-99.40363005,174.08106462,101.11539318,-14.69460794
-21.19274931,21.35919825,-12.65125478,2.11104671,0.68863236,0.41706512

>  <Name>
F2710-0004

>  <RI>
4.41245e+07

>  <Rbt.Current_Directory>
/home/adria/Escritorio/rDock_CMTR_LC/2pxcA_model/inputs_sah

>  <Rbt.Executable>
rbdock ($Id: //depot/dev/client3/rdock/2013.1/src/exe/rbdock.cxx#4 $)

>  <Rbt.Library>
libRbt.so (2013.1, Build901 2013/11/27)

>  <Rbt.Parameter_File>
/home/adria/Escritorio/rDock_2013.1_src/data/scripts/dock.prm

>  <Rbt.Receptor>
sah_rdock.prm

>  <SCORE>
-73.888

>  <SCORE.INTER>
-9.00762

>  <SCORE.INTER.CONST>
1

>  <SCORE.INTER.POLAR>
0

>  <SCORE.INTER.REPUL>
0

>  <SCORE.INTER.ROT>
6

>  <SCORE.INTER.VDW>
-20.4076

>  <SCORE.INTER.norm>
-0.333616

>  <SCORE.INTRA>
-57.427

>  <SCORE.INTRA.DIHEDRAL>
-22.8752

>  <SCORE.INTRA.DIHEDRAL.0>
33.5804

>  <SCORE.INTRA.POLAR>
0

>  <SCORE.INTRA.POLAR.0>
0

>  <SCORE.INTRA.REPUL>
0

>  <SCORE.INTRA.REPUL.0>
0

>  <SCORE.INTRA.VDW>
-45.9894

>  <SCORE.INTRA.VDW.0>
47.7816

>  <SCORE.INTRA.norm>
-2.12693

>  <SCORE.RESTR>
0

>  <SCORE.RESTR.CAVITY>
0

>  <SCORE.RESTR.norm>
0

>  <SCORE.SYSTEM>
-7.45336

>  <SCORE.SYSTEM.CONST>
0

>  <SCORE.SYSTEM.DIHEDRAL>
9.30568

>  <SCORE.SYSTEM.POLAR>
-4.62153

>  <SCORE.SYSTEM.REPUL>
0.0366687

>  <SCORE.SYSTEM.VDW>
3.42367

>  <SCORE.SYSTEM.norm>
-0.27605

>  <SCORE.heavy>
27

>  <SCORE.norm>
-2.73659

$$$$
F2710-0004
  rDOCK(R)          3D
libRbt.so/2013.1/901 2013/11/27
 27 29  0  0  0  0  0  0  0  0999 V2000
  -22.6659   18.2964  -11.3191 C   0  0  0  0  0  0
  -23.5798   19.3629  -11.5187 O   0  0  0  0  0  0
  -23.0590   20.5641  -11.9948 C   0  0  0  0  0  0
  -23.8445   21.6661  -11.6319 C   0  0  0  0  0  0
  -23.4137   22.9562  -11.9032 C   0  0  0  0  0  0
  -22.1723   23.1791  -12.5161 C   0  0  0  0  0  0
  -21.6399   24.8045  -12.7108 Cl  0  0  0  0  0  0
  -21.4308   22.0783  -12.9992 C   0  0  0  0  0  0
  -21.8694   20.7685  -12.7598 C   0  0  0  0  0  0
  -21.0655   19.8051  -13.3505 N   0  0  0  0  0  0
  -20.1370   20.3173  -14.1383 C   0  0  0  0  0  0
  -19.9529   22.0085  -13.9482 S   0  0  0  0  0  0
  -19.0813   19.5006  -14.6635 N   0  0  0  0  0  0
  -19.5473   18.0182  -14.3947 C   0  0  0  0  0  0
  -20.4260   17.3774  -15.4370 C   0  0  0  0  0  0
  -21.5738   18.2109  -15.4623 N   0  0  0  0  0  0
  -21.5136   18.7889  -16.9668 C   0  0  0  0  0  0
  -22.6661   17.3566  -14.6178 C   0  0  0  0  0  0
  -17.8599   20.1375  -15.4548 C   0  0  0  0  0  0
  -18.0210   21.4224  -15.7214 O   0  0  0  0  0  0
  -16.3142   19.5426  -16.1107 C   0  0  0  0  0  0
  -15.7601   18.1869  -16.3453 C   0  0  0  0  0  0
  -15.0028   17.7295  -17.4332 C   0  0  0  0  0  0
  -15.3799   16.3411  -17.9790 C   0  0  0  0  0  0
  -14.1473   18.6640  -17.9108 C   0  0  0  0  0  0
  -14.2609   19.9849  -17.3875 C   0  0  0  0  0  0
  -15.3698   20.4389  -16.5772 C   0  0  0  0  0  0
  1  2  1  0  0  0
  2  3  1  0  0  0
  3  4  2  0  0  0
  3  9  1  0  0  0
  4  5  1  0  0  0
  5  6  2  0  0  0
  6  7  1  0  0  0
  6  8  1  0  0  0
  8  9  2  0  0  0
  8 12  1  0  0  0
  9 10  1  0  0  0
 10 11  2  0  0  0
 11 12  1  0  0  0
 11 13  1  0  0  0
 13 14  1  0  0  0
 13 19  1  0  0  0
 14 15  1  0  0  0
 15 16  1  0  0  0
 16 17  1  0  0  0
 16 18  1  0  0  0
 19 20  2  0  0  0
 19 21  1  0  0  0
 21 22  2  0  0  0
 21 27  1  0  0  0
 22 23  1  0  0  0
 23 24  1  0  0  0
 23 25  2  0  0  0
 25 26  1  0  0  0
 26 27  2  0  0  0
M  END
>  <CHROM.0>
-61.20728555,-76.86577701,-10.04922282,59.56419099,168.24217671,-59.76723527
82.84540631,-162.04512568

>  <CHROM.1>
-154.44549066,13.69301711,86.68523509,-60.78558793,116.48576522,13.08725158
-19.85554901,20.21263875,-14.44099577,2.63138114,0.49753736,0.25460173

>  <Name>
F2710-0004

>  <RI>
4.41245e+07

>  <Rbt.Current_Directory>
/home/adria/Escritorio/rDock_CMTR_LC/2pxcA_model/inputs_sah

>  <Rbt.Executable>
rbdock ($Id: //depot/dev/client3/rdock/2013.1/src/exe/rbdock.cxx#4 $)

>  <Rbt.Library>
libRbt.so (2013.1, Build901 2013/11/27)

>  <Rbt.Parameter_File>
/home/adria/Escritorio/rDock_2013.1_src/data/scripts/dock.prm

>  <Rbt.Receptor>
sah_rdock.prm

>  <SCORE>
-75.452

>  <SCORE.INTER>
-13.7605

>  <SCORE.INTER.CONST>
1

>  <SCORE.INTER.POLAR>
0

>  <SCORE.INTER.REPUL>
0

>  <SCORE.INTER.ROT>
6

>  <SCORE.INTER.VDW>
-25.1605

>  <SCORE.INTER.norm>
-0.509647

>  <SCORE.INTRA>
-59.2837

>  <SCORE.INTRA.DIHEDRAL>
-26.4133

>  <SCORE.INTRA.DIHEDRAL.0>
33.5804

>  <SCORE.INTRA.POLAR>
0

>  <SCORE.INTRA.POLAR.0>
0

>  <SCORE.INTRA.REPUL>
0

>  <SCORE.INTRA.REPUL.0>
0

>  <SCORE.INTRA.VDW>
-46.077

>  <SCORE.INTRA.VDW.0>
47.7816

>  <SCORE.INTRA.norm>
-2.19569

>  <SCORE.RESTR>
0

>  <SCORE.RESTR.CAVITY>
0

>  <SCORE.RESTR.norm>
0

>  <SCORE.SYSTEM>
-2.40782

>  <SCORE.SYSTEM.CONST>
0

>  <SCORE.SYSTEM.DIHEDRAL>
6.93827

>  <SCORE.SYSTEM.POLAR>
-4.55608

>  <SCORE.SYSTEM.REPUL>
0.044696

>  <SCORE.SYSTEM.VDW>
9.39024

>  <SCORE.SYSTEM.norm>
-0.0891784

>  <SCORE.heavy>
27

>  <SCORE.norm>
-2.79452

$$$$
F2710-0004
  rDOCK(R)          3D
libRbt.so/2013.1/901 2013/11/27
 27 29  0  0  0  0  0  0  0  0999 V2000
  -23.3607   20.2303   -9.0317 C   0  0  0  0  0  0
  -24.0489   21.4406   -9.3037 O   0  0  0  0  0  0
  -23.3021   22.4891   -9.8367 C   0  0  0  0  0  0
  -23.5766   23.7112   -9.2088 C   0  0  0  0  0  0
  -22.8332   24.8413   -9.5153 C   0  0  0  0  0  0
  -21.7763   24.7718  -10.4342 C   0  0  0  0  0  0
  -20.8134   26.1780  -10.6764 Cl  0  0  0  0  0  0
  -21.5712   23.5808  -11.1650 C   0  0  0  0  0  0
  -22.3357   22.4387  -10.8882 C   0  0  0  0  0  0
  -22.0555   21.3742  -11.7317 N   0  0  0  0  0  0
  -21.2343   21.6951  -12.7154 C   0  0  0  0  0  0
  -20.4744   23.2121  -12.4883 S   0  0  0  0  0  0
  -20.6605   20.6856  -13.5575 N   0  0  0  0  0  0
  -21.5892   19.4256  -13.3655 C   0  0  0  0  0  0
  -22.8770   19.3992  -14.1464 C   0  0  0  0  0  0
  -23.4415   18.1407  -13.8141 N   0  0  0  0  0  0
  -24.6405   18.5803  -12.8291 C   0  0  0  0  0  0
  -23.3658   17.3236  -15.2151 C   0  0  0  0  0  0
  -19.4428   21.0107  -14.5246 C   0  0  0  0  0  0
  -19.1598   22.3002  -14.5958 O   0  0  0  0  0  0
  -18.3615   20.0650  -15.5780 C   0  0  0  0  0  0
  -17.1897   20.4174  -16.4161 C   0  0  0  0  0  0
  -15.9980   19.7006  -16.5964 C   0  0  0  0  0  0
  -14.7041   20.5334  -16.5864 C   0  0  0  0  0  0
  -16.1856   18.3598  -16.6102 C   0  0  0  0  0  0
  -17.4819   17.8760  -16.2679 C   0  0  0  0  0  0
  -18.5191   18.6948  -15.6797 C   0  0  0  0  0  0
  1  2  1  0  0  0
  2  3  1  0  0  0
  3  4  2  0  0  0
  3  9  1  0  0  0
  4  5  1  0  0  0
  5  6  2  0  0  0
  6  7  1  0  0  0
  6  8  1  0  0  0
  8  9  2  0  0  0
  8 12  1  0  0  0
  9 10  1  0  0  0
 10 11  2  0  0  0
 11 12  1  0  0  0
 11 13  1  0  0  0
 13 14  1  0  0  0
 13 19  1  0  0  0
 14 15  1  0  0  0
 15 16  1  0  0  0
 16 17  1  0  0  0
 16 18  1  0  0  0
 19 20  2  0  0  0
 19 21  1  0  0  0
 21 22  2  0  0  0
 21 27  1  0  0  0
 22 23  1  0  0  0
 23 24  1  0  0  0
 23 25  2  0  0  0
 25 26  1  0  0  0
 26 27  2  0  0  0
M  END
>  <CHROM.0>
-174.78765153,-72.00141573,-7.60094031,63.81352340,168.25012845,-58.86746032
-156.85637821,-163.02980288

>  <CHROM.1>
-134.79141360,19.29365960,80.55812291,177.35846661,106.32996244,-176.50085467
-20.81451192,21.38158064,-12.90661286,2.28831148,0.52403652,0.54388576

>  <Name>
F2710-0004

>  <RI>
4.41245e+07

>  <Rbt.Current_Directory>
/home/adria/Escritorio/rDock_CMTR_LC/2pxcA_model/inputs_sah

>  <Rbt.Executable>
rbdock ($Id: //depot/dev/client3/rdock/2013.1/src/exe/rbdock.cxx#4 $)

>  <Rbt.Library>
libRbt.so (2013.1, Build901 2013/11/27)

>  <Rbt.Parameter_File>
/home/adria/Escritorio/rDock_2013.1_src/data/scripts/dock.prm

>  <Rbt.Receptor>
sah_rdock.prm

>  <SCORE>
-72.198

>  <SCORE.INTER>
-11.4973

>  <SCORE.INTER.CONST>
1

>  <SCORE.INTER.POLAR>
0

>  <SCORE.INTER.REPUL>
0.00103679

>  <SCORE.INTER.ROT>
6

>  <SCORE.INTER.VDW>
-22.9025

>  <SCORE.INTER.norm>
-0.425826

>  <SCORE.INTRA>
-58.4721

>  <SCORE.INTRA.DIHEDRAL>
-25.17

>  <SCORE.INTRA.DIHEDRAL.0>
33.5804

>  <SCORE.INTRA.POLAR>
0

>  <SCORE.INTRA.POLAR.0>
0

>  <SCORE.INTRA.REPUL>
0

>  <SCORE.INTRA.REPUL.0>
0

>  <SCORE.INTRA.VDW>
-45.8871

>  <SCORE.INTRA.VDW.0>
47.7816

>  <SCORE.INTRA.norm>
-2.16563

>  <SCORE.RESTR>
0

>  <SCORE.RESTR.CAVITY>
0

>  <SCORE.RESTR.norm>
0

>  <SCORE.SYSTEM>
-2.22862

>  <SCORE.SYSTEM.CONST>
0

>  <SCORE.SYSTEM.DIHEDRAL>
6.59173

>  <SCORE.SYSTEM.POLAR>
-4.54533

>  <SCORE.SYSTEM.REPUL>
0.0367037

>  <SCORE.SYSTEM.VDW>
9.74612

>  <SCORE.SYSTEM.norm>
-0.0825414

>  <SCORE.heavy>
27

>  <SCORE.norm>
-2.674

$$$$
F2710-0004
  rDOCK(R)          3D
libRbt.so/2013.1/901 2013/11/27
 27 29  0  0  0  0  0  0  0  0999 V2000
  -23.9709   20.8700   -9.2643 C   0  0  0  0  0  0
  -24.2673   22.2573   -9.2830 O   0  0  0  0  0  0
  -23.2756   23.1115   -9.7602 C   0  0  0  0  0  0
  -23.2042   24.3050   -9.0298 C   0  0  0  0  0  0
  -22.1907   25.2195   -9.2749 C   0  0  0  0  0  0
  -21.2045   24.9503  -10.2347 C   0  0  0  0  0  0
  -19.9046   26.0664  -10.4025 Cl  0  0  0  0  0  0
  -21.3358   23.8138  -11.0627 C   0  0  0  0  0  0
  -22.3734   22.8960  -10.8473 C   0  0  0  0  0  0
  -22.4003   21.8705  -11.7806 N   0  0  0  0  0  0
  -21.5379   22.0443  -12.7660 C   0  0  0  0  0  0
  -20.3972   23.2809  -12.4501 S   0  0  0  0  0  0
  -21.2672   20.9938  -13.7044 N   0  0  0  0  0  0
  -22.4630   19.9805  -13.5304 C   0  0  0  0  0  0
  -22.1086   18.5529  -13.2060 C   0  0  0  0  0  0
  -23.3702   17.9118  -13.1054 N   0  0  0  0  0  0
  -23.3740   17.0065  -14.4402 C   0  0  0  0  0  0
  -23.4942   17.5934  -11.5181 C   0  0  0  0  0  0
  -20.0553   21.0915  -14.7269 C   0  0  0  0  0  0
  -19.4721   22.2780  -14.7366 O   0  0  0  0  0  0
  -19.2875   19.9978  -15.9049 C   0  0  0  0  0  0
  -18.0177   20.0515  -16.6694 C   0  0  0  0  0  0
  -17.1220   19.0094  -16.9485 C   0  0  0  0  0  0
  -15.6284   19.3484  -16.8000 C   0  0  0  0  0  0
  -17.7415   17.8261  -17.1703 C   0  0  0  0  0  0
  -19.1427   17.7625  -16.9169 C   0  0  0  0  0  0
  -19.8834   18.7896  -16.2177 C   0  0  0  0  0  0
  1  2  1  0  0  0
  2  3  1  0  0  0
  3  4  2  0  0  0
  3  9  1  0  0  0
  4  5  1  0  0  0
  5  6  2  0  0  0
  6  7  1  0  0  0
  6  8  1  0  0  0
  8  9  2  0  0  0
  8 12  1  0  0  0
  9 10  1  0  0  0
 10 11  2  0  0  0
 11 12  1  0  0  0
 11 13  1  0  0  0
 13 14  1  0  0  0
 13 19  1  0  0  0
 14 15  1  0  0  0
 15 16  1  0  0  0
 16 17  1  0  0  0
 16 18  1  0  0  0
 19 20  2  0  0  0
 19 21  1  0  0  0
 21 22  2  0  0  0
 21 27  1  0  0  0
 22 23  1  0  0  0
 23 24  1  0  0  0
 23 25  2  0  0  0
 25 26  1  0  0  0
 26 27  2  0  0  0
M  END
>  <CHROM.0>
-59.86147682,67.71097987,-167.82988605,64.48710645,168.23776217,-178.12854718
-36.14461212,-162.91802449

>  <CHROM.1>
-141.26943611,16.83552821,-123.99978995,179.58979216,108.78854140,-167.47344131
-21.00473304,21.38602660,-12.84474515,2.04212528,0.63109397,0.57011118

>  <Name>
F2710-0004

>  <RI>
4.41245e+07

>  <Rbt.Current_Directory>
/home/adria/Escritorio/rDock_CMTR_LC/2pxcA_model/inputs_sah

>  <Rbt.Executable>
rbdock ($Id: //depot/dev/client3/rdock/2013.1/src/exe/rbdock.cxx#4 $)

>  <Rbt.Library>
libRbt.so (2013.1, Build901 2013/11/27)

>  <Rbt.Parameter_File>
/home/adria/Escritorio/rDock_2013.1_src/data/scripts/dock.prm

>  <Rbt.Receptor>
sah_rdock.prm

>  <SCORE>
-72.6059

>  <SCORE.INTER>
-11.7144

>  <SCORE.INTER.CONST>
1

>  <SCORE.INTER.POLAR>
0

>  <SCORE.INTER.REPUL>
0

>  <SCORE.INTER.ROT>
6

>  <SCORE.INTER.VDW>
-23.1144

>  <SCORE.INTER.norm>
-0.433868

>  <SCORE.INTRA>
-58.6965

>  <SCORE.INTRA.DIHEDRAL>
-25.2172

>  <SCORE.INTRA.DIHEDRAL.0>
33.5804

>  <SCORE.INTRA.POLAR>
0

>  <SCORE.INTRA.POLAR.0>
0

>  <SCORE.INTRA.REPUL>
0

>  <SCORE.INTRA.REPUL.0>
0

>  <SCORE.INTRA.VDW>
-46.088

>  <SCORE.INTRA.VDW.0>
47.7816

>  <SCORE.INTRA.norm>
-2.17395

>  <SCORE.RESTR>
0

>  <SCORE.RESTR.CAVITY>
0

>  <SCORE.RESTR.norm>
0

>  <SCORE.SYSTEM>
-2.19496

>  <SCORE.SYSTEM.CONST>
0

>  <SCORE.SYSTEM.DIHEDRAL>
3.05698

>  <SCORE.SYSTEM.POLAR>
-3.58118

>  <SCORE.SYSTEM.VDW>
8.45256

>  <SCORE.SYSTEM.norm>
-0.0812948

>  <SCORE.heavy>
27

>  <SCORE.norm>
-2.68911

$$$$
