F2393-0259
  rDOCK(R)          3D
libRbt.so/2013.1/901 2013/11/27
 28 30  0  0  0  0  0  0  0  0999 V2000
  -24.4378   18.4941  -10.3333 C   0  0  0  0  0  0
  -23.5929   17.7134  -11.3133 C   0  0  0  0  0  0
  -24.3392   17.0539  -12.4584 C   0  0  0  0  0  0
  -22.5322   18.5982  -11.9007 C   0  0  0  0  0  0
  -21.0356   17.7855  -12.1479 C   0  0  0  0  0  0
  -19.5452   18.7618  -12.9760 C   0  0  0  0  0  0
  -19.7970   20.3435  -13.5953 C   0  0  0  0  0  0
  -21.3335   21.0705  -13.3045 C   0  0  0  0  0  0
  -22.6605   20.2227  -12.4980 C   0  0  0  0  0  0
  -18.5696   20.6383  -14.8082 S   0  0  0  0  0  0
  -18.5359   22.0578  -15.0607 O   0  0  0  0  0  0
  -17.3812   19.8992  -14.4402 O   0  0  0  0  0  0
  -19.2803   19.8628  -16.1390 N   0  0  0  0  0  0
  -19.4160   18.3673  -16.3548 C   0  0  0  0  0  0
  -18.1724   17.3897  -16.2429 C   0  0  0  0  0  0
  -18.1519   16.1061  -16.9586 N   0  0  0  0  0  0
  -17.4055   15.9331  -18.6305 C   0  0  0  0  0  0
  -16.7469   14.2453  -19.2415 C   0  0  0  0  0  0
  -16.0568   13.0151  -18.2476 N   0  0  0  0  0  0
  -16.6589   11.6830  -18.4839 C   0  0  0  0  0  0
  -16.3362   13.1921  -16.4770 C   0  0  0  0  0  0
  -17.6643   14.8008  -15.6692 C   0  0  0  0  0  0
  -16.8050   18.0500  -16.5949 C   0  0  0  0  0  0
  -16.6641   19.3571  -17.0540 C   0  0  0  0  0  0
  -15.0356   19.8636  -17.2006 S   0  0  0  0  0  0
  -14.4649   18.3718  -16.6077 C   0  0  0  0  0  0
  -15.4971   17.5108  -16.3102 C   0  0  0  0  0  0
  -19.2166   20.4411  -16.9751 H   0  0  0  0  0  0
  1  2  1  0  0  0
  2  3  1  0  0  0
  2  4  1  0  0  0
  4  5  2  0  0  0
  4  9  1  0  0  0
  5  6  1  0  0  0
  6  7  2  0  0  0
  7  8  1  0  0  0
  7 10  1  0  0  0
  8  9  2  0  0  0
 10 11  2  0  0  0
 10 12  2  0  0  0
 10 13  1  0  0  0
 13 14  1  0  0  0
 13 28  1  0  0  0
 14 15  1  0  0  0
 15 16  1  0  0  0
 15 23  1  0  0  0
 16 17  1  0  0  0
 16 22  1  0  0  0
 17 18  1  0  0  0
 18 19  1  0  0  0
 19 20  1  0  0  0
 19 21  1  0  0  0
 21 22  1  0  0  0
 23 24  2  0  0  0
 23 27  1  0  0  0
 24 25  1  0  0  0
 25 26  1  0  0  0
 26 27  2  0  0  0
M  END
>  <CHROM.0>
-60.63019568,65.34970701,-132.70368572,63.50406902,-30.63869825,62.20852275
81.13144243,-159.61279314

>  <CHROM.1>
142.84327303,-164.35382872,-72.74096693,-52.00779060,-154.49986566,93.07234818
-3.98259264,-18.63354915,17.99432136,-15.32057156,2.57211728,0.61998842,0.23970066

>  <Name>
F2393-0259

>  <RI>
2.3751e+07

>  <Rbt.Current_Directory>
/home/adria/Escritorio/rDock_CMTR_LC/2pxcA_model/inputs_sah

>  <Rbt.Executable>
rbdock ($Id: //depot/dev/client3/rdock/2013.1/src/exe/rbdock.cxx#4 $)

>  <Rbt.Library>
libRbt.so (2013.1, Build901 2013/11/27)

>  <Rbt.Parameter_File>
/home/adria/Escritorio/rDock_2013.1_src/data/scripts/dock.prm

>  <Rbt.Receptor>
sah_rdock.prm

>  <SCORE>
-278.019

>  <SCORE.INTER>
-9.24545

>  <SCORE.INTER.CONST>
1

>  <SCORE.INTER.POLAR>
0

>  <SCORE.INTER.REPUL>
0.1371

>  <SCORE.INTER.ROT>
7

>  <SCORE.INTER.VDW>
-22.3309

>  <SCORE.INTER.norm>
-0.342424

>  <SCORE.INTRA>
-262.191

>  <SCORE.INTRA.DIHEDRAL>
2.10066

>  <SCORE.INTRA.DIHEDRAL.0>
6.08329

>  <SCORE.INTRA.POLAR>
0

>  <SCORE.INTRA.POLAR.0>
0

>  <SCORE.INTRA.REPUL>
0

>  <SCORE.INTRA.REPUL.0>
0

>  <SCORE.INTRA.VDW>
-263.242

>  <SCORE.INTRA.VDW.0>
260.094

>  <SCORE.INTRA.norm>
-9.71079

>  <SCORE.RESTR>
0.000727515

>  <SCORE.RESTR.CAVITY>
0.000727515

>  <SCORE.RESTR.norm>
2.6945e-05

>  <SCORE.SYSTEM>
-6.58343

>  <SCORE.SYSTEM.CONST>
0

>  <SCORE.SYSTEM.DIHEDRAL>
8.48732

>  <SCORE.SYSTEM.POLAR>
-4.0899

>  <SCORE.SYSTEM.VDW>
3.07855

>  <SCORE.SYSTEM.norm>
-0.243831

>  <SCORE.heavy>
27

>  <SCORE.norm>
-10.297

$$$$
F2393-0259
  rDOCK(R)          3D
libRbt.so/2013.1/901 2013/11/27
 28 30  0  0  0  0  0  0  0  0999 V2000
  -15.6285   12.7352  -17.1063 C   0  0  0  0  0  0
  -15.1079   13.5788  -18.2470 C   0  0  0  0  0  0
  -15.4910   13.1215  -19.6424 C   0  0  0  0  0  0
  -15.5594   15.0013  -18.0858 C   0  0  0  0  0  0
  -17.2593   15.1489  -17.8626 C   0  0  0  0  0  0
  -18.0308   16.9307  -17.5624 C   0  0  0  0  0  0
  -16.9982   18.2870  -17.3561 C   0  0  0  0  0  0
  -15.3083   18.0364  -17.5920 C   0  0  0  0  0  0
  -14.6107   16.4463  -17.9308 C   0  0  0  0  0  0
  -17.8920   19.5022  -16.4680 S   0  0  0  0  0  0
  -17.8102   19.1690  -15.0672 O   0  0  0  0  0  0
  -17.5065   20.8045  -16.9674 O   0  0  0  0  0  0
  -19.4622   19.1716  -17.0180 N   0  0  0  0  0  0
  -20.4859   18.2669  -16.3582 C   0  0  0  0  0  0
  -21.1108   18.6054  -14.9405 C   0  0  0  0  0  0
  -21.6942   19.9263  -14.6665 N   0  0  0  0  0  0
  -22.9688   20.1788  -13.3648 C   0  0  0  0  0  0
  -23.2001   21.8861  -12.5357 C   0  0  0  0  0  0
  -21.9537   23.0467  -12.2579 N   0  0  0  0  0  0
  -22.3142   24.4003  -12.7381 C   0  0  0  0  0  0
  -20.4184   22.7764  -13.1602 C   0  0  0  0  0  0
  -20.2421   21.1490  -14.6849 C   0  0  0  0  0  0
  -22.1982   17.5961  -14.4624 C   0  0  0  0  0  0
  -22.2659   17.0736  -13.1735 C   0  0  0  0  0  0
  -23.6588   16.1198  -12.8895 S   0  0  0  0  0  0
  -24.2435   16.4143  -14.4625 C   0  0  0  0  0  0
  -23.3900   17.2189  -15.1833 C   0  0  0  0  0  0
  -19.5218   19.2667  -18.0304 H   0  0  0  0  0  0
  1  2  1  0  0  0
  2  3  1  0  0  0
  2  4  1  0  0  0
  4  5  2  0  0  0
  4  9  1  0  0  0
  5  6  1  0  0  0
  6  7  2  0  0  0
  7  8  1  0  0  0
  7 10  1  0  0  0
  8  9  2  0  0  0
 10 11  2  0  0  0
 10 12  2  0  0  0
 10 13  1  0  0  0
 13 14  1  0  0  0
 13 28  1  0  0  0
 14 15  1  0  0  0
 15 16  1  0  0  0
 15 23  1  0  0  0
 16 17  1  0  0  0
 16 22  1  0  0  0
 17 18  1  0  0  0
 18 19  1  0  0  0
 19 20  1  0  0  0
 19 21  1  0  0  0
 21 22  1  0  0  0
 23 24  2  0  0  0
 23 27  1  0  0  0
 24 25  1  0  0  0
 25 26  1  0  0  0
 26 27  2  0  0  0
M  END
>  <CHROM.0>
-175.84263179,-162.48997572,-8.57080145,66.86582988,-30.02135681,178.55651513
-158.51368351,-160.53232283

>  <CHROM.1>
-52.52597219,82.18796119,93.46156420,65.39424194,50.98223846,155.62744501
135.25826168,-19.62181365,18.26928368,-15.52385334,0.68326497,-0.50268078
-2.95186336

>  <Name>
F2393-0259

>  <RI>
2.3751e+07

>  <Rbt.Current_Directory>
/home/adria/Escritorio/rDock_CMTR_LC/2pxcA_model/inputs_sah

>  <Rbt.Executable>
rbdock ($Id: //depot/dev/client3/rdock/2013.1/src/exe/rbdock.cxx#4 $)

>  <Rbt.Library>
libRbt.so (2013.1, Build901 2013/11/27)

>  <Rbt.Parameter_File>
/home/adria/Escritorio/rDock_2013.1_src/data/scripts/dock.prm

>  <Rbt.Receptor>
sah_rdock.prm

>  <SCORE>
-278.593

>  <SCORE.INTER>
-11.4794

>  <SCORE.INTER.CONST>
1

>  <SCORE.INTER.POLAR>
-1.54296

>  <SCORE.INTER.REPUL>
0.633687

>  <SCORE.INTER.ROT>
7

>  <SCORE.INTER.VDW>
-21.8018

>  <SCORE.INTER.norm>
-0.425164

>  <SCORE.INTRA>
-261.393

>  <SCORE.INTRA.DIHEDRAL>
-1.10816

>  <SCORE.INTRA.DIHEDRAL.0>
6.08329

>  <SCORE.INTRA.POLAR>
0

>  <SCORE.INTRA.POLAR.0>
0

>  <SCORE.INTRA.REPUL>
0

>  <SCORE.INTRA.REPUL.0>
0

>  <SCORE.INTRA.VDW>
-260.839

>  <SCORE.INTRA.VDW.0>
260.094

>  <SCORE.INTRA.norm>
-9.68123

>  <SCORE.RESTR>
0

>  <SCORE.RESTR.CAVITY>
0

>  <SCORE.RESTR.norm>
0

>  <SCORE.SYSTEM>
-5.71991

>  <SCORE.SYSTEM.CONST>
0

>  <SCORE.SYSTEM.DIHEDRAL>
10.3051

>  <SCORE.SYSTEM.POLAR>
-4.29341

>  <SCORE.SYSTEM.VDW>
3.72515

>  <SCORE.SYSTEM.norm>
-0.211848

>  <SCORE.heavy>
27

>  <SCORE.norm>
-10.3182

$$$$
F2393-0259
  rDOCK(R)          3D
libRbt.so/2013.1/901 2013/11/27
 28 30  0  0  0  0  0  0  0  0999 V2000
  -23.8463   22.8775   -8.1466 C   0  0  0  0  0  0
  -24.6277   22.6477   -9.4195 C   0  0  0  0  0  0
  -24.8237   23.8617  -10.3090 C   0  0  0  0  0  0
  -23.9751   21.5733  -10.2398 C   0  0  0  0  0  0
  -25.0473   20.2908  -10.6485 C   0  0  0  0  0  0
  -24.3931   18.8246  -11.7809 C   0  0  0  0  0  0
  -22.8303   18.9195  -12.4861 C   0  0  0  0  0  0
  -21.8329   20.2473  -12.0208 C   0  0  0  0  0  0
  -22.3903   21.5376  -10.9464 C   0  0  0  0  0  0
  -22.8229   17.8839  -13.8974 S   0  0  0  0  0  0
  -23.1885   16.5566  -13.4681 O   0  0  0  0  0  0
  -23.5277   18.5636  -14.9628 O   0  0  0  0  0  0
  -21.1673   17.9027  -14.2662 N   0  0  0  0  0  0
  -20.1821   16.7629  -14.0871 C   0  0  0  0  0  0
  -19.1158   16.3961  -15.2021 C   0  0  0  0  0  0
  -17.8601   17.1499  -15.3257 N   0  0  0  0  0  0
  -16.6580   16.8277  -16.6798 C   0  0  0  0  0  0
  -15.4480   18.1886  -17.2625 C   0  0  0  0  0  0
  -15.7634   19.8851  -17.2565 N   0  0  0  0  0  0
  -14.6826   20.6664  -16.6130 C   0  0  0  0  0  0
  -17.1789   20.4137  -16.2761 C   0  0  0  0  0  0
  -18.3105   18.9653  -15.0010 C   0  0  0  0  0  0
  -18.6705   14.9023  -15.1957 C   0  0  0  0  0  0
  -18.5578   14.1259  -14.0453 C   0  0  0  0  0  0
  -18.2090   12.4793  -14.3573 S   0  0  0  0  0  0
  -18.2469   12.7376  -16.0410 C   0  0  0  0  0  0
  -18.5162   14.0517  -16.3511 C   0  0  0  0  0  0
  -20.7901   18.8468  -14.2029 H   0  0  0  0  0  0
  1  2  1  0  0  0
  2  3  1  0  0  0
  2  4  1  0  0  0
  4  5  2  0  0  0
  4  9  1  0  0  0
  5  6  1  0  0  0
  6  7  2  0  0  0
  7  8  1  0  0  0
  7 10  1  0  0  0
  8  9  2  0  0  0
 10 11  2  0  0  0
 10 12  2  0  0  0
 10 13  1  0  0  0
 13 14  1  0  0  0
 13 28  1  0  0  0
 14 15  1  0  0  0
 15 16  1  0  0  0
 15 23  1  0  0  0
 16 17  1  0  0  0
 16 22  1  0  0  0
 17 18  1  0  0  0
 18 19  1  0  0  0
 19 20  1  0  0  0
 19 21  1  0  0  0
 21 22  1  0  0  0
 23 24  2  0  0  0
 23 27  1  0  0  0
 24 25  1  0  0  0
 25 26  1  0  0  0
 26 27  2  0  0  0
M  END
>  <CHROM.0>
-175.55317385,-74.87677818,75.10240942,64.33390178,167.71360457,65.86100114
-156.19454747,-162.97445869

>  <CHROM.1>
125.41251136,-56.93442285,108.36930129,136.14748743,81.15143959,-175.60637902
-33.70033598,-20.43870559,18.09544583,-13.84361954,-2.46624968,-0.57340053
-2.98982153

>  <Name>
F2393-0259

>  <RI>
2.3751e+07

>  <Rbt.Current_Directory>
/home/adria/Escritorio/rDock_CMTR_LC/2pxcA_model/inputs_sah

>  <Rbt.Executable>
rbdock ($Id: //depot/dev/client3/rdock/2013.1/src/exe/rbdock.cxx#4 $)

>  <Rbt.Library>
libRbt.so (2013.1, Build901 2013/11/27)

>  <Rbt.Parameter_File>
/home/adria/Escritorio/rDock_2013.1_src/data/scripts/dock.prm

>  <Rbt.Receptor>
sah_rdock.prm

>  <SCORE>
-274.164

>  <SCORE.INTER>
-10.2168

>  <SCORE.INTER.CONST>
1

>  <SCORE.INTER.POLAR>
-0.566346

>  <SCORE.INTER.REPUL>
0.119156

>  <SCORE.INTER.ROT>
7

>  <SCORE.INTER.VDW>
-21.287

>  <SCORE.INTER.norm>
-0.378398

>  <SCORE.INTRA>
-261.395

>  <SCORE.INTRA.DIHEDRAL>
0.507452

>  <SCORE.INTRA.DIHEDRAL.0>
6.08329

>  <SCORE.INTRA.POLAR>
0

>  <SCORE.INTRA.POLAR.0>
0

>  <SCORE.INTRA.REPUL>
0

>  <SCORE.INTRA.REPUL.0>
0

>  <SCORE.INTRA.VDW>
-261.649

>  <SCORE.INTRA.VDW.0>
260.094

>  <SCORE.INTRA.norm>
-9.6813

>  <SCORE.RESTR>
0

>  <SCORE.RESTR.CAVITY>
0

>  <SCORE.RESTR.norm>
0

>  <SCORE.SYSTEM>
-2.55205

>  <SCORE.SYSTEM.CONST>
0

>  <SCORE.SYSTEM.DIHEDRAL>
4.20351

>  <SCORE.SYSTEM.POLAR>
-4.07638

>  <SCORE.SYSTEM.REPUL>
0.0417134

>  <SCORE.SYSTEM.VDW>
8.99732

>  <SCORE.SYSTEM.norm>
-0.0945205

>  <SCORE.heavy>
27

>  <SCORE.norm>
-10.1542

$$$$
F2393-0259
  rDOCK(R)          3D
libRbt.so/2013.1/901 2013/11/27
 28 30  0  0  0  0  0  0  0  0999 V2000
  -23.0950   25.6509  -11.9979 C   0  0  0  0  0  0
  -21.8835   25.0742  -11.3025 C   0  0  0  0  0  0
  -21.9122   25.0978   -9.7854 C   0  0  0  0  0  0
  -21.6637   23.6550  -11.7393 C   0  0  0  0  0  0
  -20.5712   23.5171  -13.0617 C   0  0  0  0  0  0
  -20.1021   21.7297  -13.7292 C   0  0  0  0  0  0
  -20.6435   20.3331  -12.8896 C   0  0  0  0  0  0
  -21.7296   20.5749  -11.5719 C   0  0  0  0  0  0
  -22.2121   22.1803  -11.0066 C   0  0  0  0  0  0
  -19.5553   19.0212  -13.2883 S   0  0  0  0  0  0
  -18.2207   19.4362  -12.9328 O   0  0  0  0  0  0
  -20.1296   17.7887  -12.7931 O   0  0  0  0  0  0
  -19.6975   19.0258  -14.9786 N   0  0  0  0  0  0
  -18.5732   19.1777  -15.9859 C   0  0  0  0  0  0
  -17.2397   18.3252  -15.8858 C   0  0  0  0  0  0
  -17.2370   16.8863  -16.1859 N   0  0  0  0  0  0
  -15.7065   15.8715  -16.0842 C   0  0  0  0  0  0
  -15.7972   13.9872  -15.7724 C   0  0  0  0  0  0
  -17.0055   13.1783  -14.8435 N   0  0  0  0  0  0
  -17.6049   12.0291  -15.5598 C   0  0  0  0  0  0
  -18.4824   14.1409  -14.4738 C   0  0  0  0  0  0
  -18.7855   16.1782  -15.3466 C   0  0  0  0  0  0
  -16.0511   18.8954  -16.7175 C   0  0  0  0  0  0
  -15.2741   19.9824  -16.3254 C   0  0  0  0  0  0
  -13.9388   20.2811  -17.3541 S   0  0  0  0  0  0
  -14.3244   18.9380  -18.3289 C   0  0  0  0  0  0
  -15.4482   18.2836  -17.8771 C   0  0  0  0  0  0
  -20.6166   19.3570  -15.2666 H   0  0  0  0  0  0
  1  2  1  0  0  0
  2  3  1  0  0  0
  2  4  1  0  0  0
  4  5  2  0  0  0
  4  9  1  0  0  0
  5  6  1  0  0  0
  6  7  2  0  0  0
  7  8  1  0  0  0
  7 10  1  0  0  0
  8  9  2  0  0  0
 10 11  2  0  0  0
 10 12  2  0  0  0
 10 13  1  0  0  0
 13 14  1  0  0  0
 13 28  1  0  0  0
 14 15  1  0  0  0
 15 16  1  0  0  0
 15 23  1  0  0  0
 16 17  1  0  0  0
 16 22  1  0  0  0
 17 18  1  0  0  0
 18 19  1  0  0  0
 19 20  1  0  0  0
 19 21  1  0  0  0
 21 22  1  0  0  0
 23 24  2  0  0  0
 23 27  1  0  0  0
 24 25  1  0  0  0
 25 26  1  0  0  0
 26 27  2  0  0  0
M  END
>  <CHROM.0>
40.90593958,67.55480379,-134.14266634,-61.35105500,-30.83063625,63.47310281
-37.04371545,-49.95418319

>  <CHROM.1>
93.37924246,56.82249345,123.34470629,48.42412615,71.37107193,179.80335864
77.52186430,-18.47101222,19.21152162,-14.43077085,-2.33536704,-0.68547555
-3.12884652

>  <Name>
F2393-0259

>  <RI>
2.3751e+07

>  <Rbt.Current_Directory>
/home/adria/Escritorio/rDock_CMTR_LC/2pxcA_model/inputs_sah

>  <Rbt.Executable>
rbdock ($Id: //depot/dev/client3/rdock/2013.1/src/exe/rbdock.cxx#4 $)

>  <Rbt.Library>
libRbt.so (2013.1, Build901 2013/11/27)

>  <Rbt.Parameter_File>
/home/adria/Escritorio/rDock_2013.1_src/data/scripts/dock.prm

>  <Rbt.Receptor>
sah_rdock.prm

>  <SCORE>
-281.655

>  <SCORE.INTER>
-19.7674

>  <SCORE.INTER.CONST>
1

>  <SCORE.INTER.POLAR>
-0.824621

>  <SCORE.INTER.REPUL>
0

>  <SCORE.INTER.ROT>
7

>  <SCORE.INTER.VDW>
-29.3637

>  <SCORE.INTER.norm>
-0.732127

>  <SCORE.INTRA>
-262.14

>  <SCORE.INTRA.DIHEDRAL>
-0.728729

>  <SCORE.INTRA.DIHEDRAL.0>
6.08329

>  <SCORE.INTRA.POLAR>
0

>  <SCORE.INTRA.POLAR.0>
0

>  <SCORE.INTRA.REPUL>
0

>  <SCORE.INTRA.REPUL.0>
0

>  <SCORE.INTRA.VDW>
-261.776

>  <SCORE.INTRA.VDW.0>
260.094

>  <SCORE.INTRA.norm>
-9.70889

>  <SCORE.RESTR>
0

>  <SCORE.RESTR.CAVITY>
0

>  <SCORE.RESTR.norm>
0

>  <SCORE.SYSTEM>
0.252504

>  <SCORE.SYSTEM.CONST>
0

>  <SCORE.SYSTEM.DIHEDRAL>
12.5051

>  <SCORE.SYSTEM.POLAR>
-3.68592

>  <SCORE.SYSTEM.REPUL>
0.131997

>  <SCORE.SYSTEM.VDW>
5.87213

>  <SCORE.SYSTEM.norm>
0.009352

>  <SCORE.heavy>
27

>  <SCORE.norm>
-10.4317

$$$$
F2393-0259
  rDOCK(R)          3D
libRbt.so/2013.1/901 2013/11/27
 28 30  0  0  0  0  0  0  0  0999 V2000
  -18.0538   13.2712  -14.0092 C   0  0  0  0  0  0
  -17.5814   13.2264  -15.4440 C   0  0  0  0  0  0
  -18.5601   12.6486  -16.4497 C   0  0  0  0  0  0
  -17.2014   14.6030  -15.9062 C   0  0  0  0  0  0
  -18.5416   15.6787  -15.9971 C   0  0  0  0  0  0
  -18.2310   17.5482  -16.5152 C   0  0  0  0  0  0
  -16.6260   18.1290  -16.7032 C   0  0  0  0  0  0
  -15.3495   16.9754  -16.5857 C   0  0  0  0  0  0
  -15.6256   15.2741  -16.1868 C   0  0  0  0  0  0
  -16.6627   19.8654  -16.4842 S   0  0  0  0  0  0
  -15.3557   20.2777  -16.0353 O   0  0  0  0  0  0
  -17.2935   20.4560  -17.6450 O   0  0  0  0  0  0
  -17.7470   19.9741  -15.1842 N   0  0  0  0  0  0
  -18.8866   20.9636  -15.0301 C   0  0  0  0  0  0
  -19.7524   21.0422  -13.7037 C   0  0  0  0  0  0
  -20.9623   21.8743  -13.6379 N   0  0  0  0  0  0
  -22.6017   21.1776  -13.1806 C   0  0  0  0  0  0
  -23.9615   22.2859  -12.4200 C   0  0  0  0  0  0
  -23.6923   23.6572  -11.4077 N   0  0  0  0  0  0
  -24.4350   24.8564  -11.8584 C   0  0  0  0  0  0
  -22.0096   24.2996  -11.3928 C   0  0  0  0  0  0
  -20.4433   23.4762  -12.7612 C   0  0  0  0  0  0
  -20.2061   19.6568  -13.1520 C   0  0  0  0  0  0
  -20.6786   19.4479  -11.8589 C   0  0  0  0  0  0
  -21.2576   17.8603  -11.5855 S   0  0  0  0  0  0
  -20.9436   17.4132  -13.1993 C   0  0  0  0  0  0
  -20.4066   18.4537  -13.9233 C   0  0  0  0  0  0
  -17.3223   19.6290  -14.3251 H   0  0  0  0  0  0
  1  2  1  0  0  0
  2  3  1  0  0  0
  2  4  1  0  0  0
  4  5  2  0  0  0
  4  9  1  0  0  0
  5  6  1  0  0  0
  6  7  2  0  0  0
  7  8  1  0  0  0
  7 10  1  0  0  0
  8  9  2  0  0  0
 10 11  2  0  0  0
 10 12  2  0  0  0
 10 13  1  0  0  0
 13 14  1  0  0  0
 13 28  1  0  0  0
 14 15  1  0  0  0
 15 16  1  0  0  0
 15 23  1  0  0  0
 16 17  1  0  0  0
 16 22  1  0  0  0
 17 18  1  0  0  0
 18 19  1  0  0  0
 19 20  1  0  0  0
 19 21  1  0  0  0
 21 22  1  0  0  0
 23 24  2  0  0  0
 23 27  1  0  0  0
 24 25  1  0  0  0
 25 26  1  0  0  0
 26 27  2  0  0  0
M  END
>  <CHROM.0>
-60.84447143,65.65732159,-8.50407846,-146.10189482,-28.83827495,179.14888128
-156.59345599,-156.80727864

>  <CHROM.1>
-66.31050850,154.23414717,-136.50949324,-174.56622726,-171.61008222,123.65475386
163.58156293,-19.34689374,19.09700050,-14.34830857,0.78371525,-0.66306612
3.08414274

>  <Name>
F2393-0259

>  <RI>
2.3751e+07

>  <Rbt.Current_Directory>
/home/adria/Escritorio/rDock_CMTR_LC/2pxcA_model/inputs_sah

>  <Rbt.Executable>
rbdock ($Id: //depot/dev/client3/rdock/2013.1/src/exe/rbdock.cxx#4 $)

>  <Rbt.Library>
libRbt.so (2013.1, Build901 2013/11/27)

>  <Rbt.Parameter_File>
/home/adria/Escritorio/rDock_2013.1_src/data/scripts/dock.prm

>  <Rbt.Receptor>
sah_rdock.prm

>  <SCORE>
-275.487

>  <SCORE.INTER>
-12.0559

>  <SCORE.INTER.CONST>
1

>  <SCORE.INTER.POLAR>
-0.848528

>  <SCORE.INTER.REPUL>
3.16343e-05

>  <SCORE.INTER.ROT>
7

>  <SCORE.INTER.VDW>
-21.5711

>  <SCORE.INTER.norm>
-0.446516

>  <SCORE.INTRA>
-259.74

>  <SCORE.INTRA.DIHEDRAL>
1.67078

>  <SCORE.INTRA.DIHEDRAL.0>
6.08329

>  <SCORE.INTRA.POLAR>
0

>  <SCORE.INTRA.POLAR.0>
0

>  <SCORE.INTRA.REPUL>
0

>  <SCORE.INTRA.REPUL.0>
0

>  <SCORE.INTRA.VDW>
-260.576

>  <SCORE.INTRA.VDW.0>
260.094

>  <SCORE.INTRA.norm>
-9.62001

>  <SCORE.RESTR>
0

>  <SCORE.RESTR.CAVITY>
0

>  <SCORE.RESTR.norm>
0

>  <SCORE.SYSTEM>
-3.69036

>  <SCORE.SYSTEM.CONST>
0

>  <SCORE.SYSTEM.DIHEDRAL>
13.6707

>  <SCORE.SYSTEM.POLAR>
-4.39264

>  <SCORE.SYSTEM.VDW>
4.40929

>  <SCORE.SYSTEM.norm>
-0.13668

>  <SCORE.heavy>
27

>  <SCORE.norm>
-10.2032

$$$$
F2393-0259
  rDOCK(R)          3D
libRbt.so/2013.1/901 2013/11/27
 28 30  0  0  0  0  0  0  0  0999 V2000
  -17.4323   12.2384  -16.5513 C   0  0  0  0  0  0
  -18.1273   13.2992  -15.7294 C   0  0  0  0  0  0
  -18.0394   13.1383  -14.2229 C   0  0  0  0  0  0
  -17.5945   14.6575  -16.0818 C   0  0  0  0  0  0
  -18.8343   15.8207  -16.3487 C   0  0  0  0  0  0
  -18.3306   17.6765  -16.7515 C   0  0  0  0  0  0
  -16.6836   18.1545  -16.6652 C   0  0  0  0  0  0
  -15.5156   16.9171  -16.3845 C   0  0  0  0  0  0
  -15.9559   15.2294  -16.0886 C   0  0  0  0  0  0
  -16.6480   19.8844  -16.3996 S   0  0  0  0  0  0
  -15.3005   20.2430  -16.0317 O   0  0  0  0  0  0
  -17.3367   20.5265  -17.4984 O   0  0  0  0  0  0
  -17.6367   19.9904  -15.0253 N   0  0  0  0  0  0
  -18.7912   20.9502  -14.8067 C   0  0  0  0  0  0
  -19.9979   20.6004  -13.8391 C   0  0  0  0  0  0
  -21.1793   21.4710  -13.7573 N   0  0  0  0  0  0
  -22.7801   20.8812  -13.0704 C   0  0  0  0  0  0
  -24.0383   22.1098  -12.3198 C   0  0  0  0  0  0
  -23.6459   23.5787  -11.5037 N   0  0  0  0  0  0
  -24.4053   24.7408  -12.0192 C   0  0  0  0  0  0
  -21.9575   24.1672  -11.7216 C   0  0  0  0  0  0
  -20.5471   23.1459  -13.1257 C   0  0  0  0  0  0
  -20.5851   19.1703  -14.0386 C   0  0  0  0  0  0
  -20.8631   18.2880  -12.9978 C   0  0  0  0  0  0
  -21.6535   16.8557  -13.5019 S   0  0  0  0  0  0
  -21.6965   17.3882  -15.1197 C   0  0  0  0  0  0
  -21.1168   18.6284  -15.2658 C   0  0  0  0  0  0
  -17.1401   19.6763  -14.1933 H   0  0  0  0  0  0
  1  2  1  0  0  0
  2  3  1  0  0  0
  2  4  1  0  0  0
  4  5  2  0  0  0
  4  9  1  0  0  0
  5  6  1  0  0  0
  6  7  2  0  0  0
  7  8  1  0  0  0
  7 10  1  0  0  0
  8  9  2  0  0  0
 10 11  2  0  0  0
 10 12  2  0  0  0
 10 13  1  0  0  0
 13 14  1  0  0  0
 13 28  1  0  0  0
 14 15  1  0  0  0
 15 16  1  0  0  0
 15 23  1  0  0  0
 16 17  1  0  0  0
 16 22  1  0  0  0
 17 18  1  0  0  0
 18 19  1  0  0  0
 19 20  1  0  0  0
 19 21  1  0  0  0
 21 22  1  0  0  0
 23 24  2  0  0  0
 23 27  1  0  0  0
 24 25  1  0  0  0
 25 26  1  0  0  0
 26 27  2  0  0  0
M  END
>  <CHROM.0>
-175.32337582,-72.13432495,111.42032325,64.29116495,168.98401476,-177.70246662
-37.77880866,-160.48398138

>  <CHROM.1>
132.76207743,167.44037080,-132.05189164,153.37879762,-172.93279082,161.18356310
133.26179383,-19.47282399,18.89737784,-14.70804286,0.88609865,-0.51136387
-3.07326928

>  <Name>
F2393-0259

>  <RI>
2.3751e+07

>  <Rbt.Current_Directory>
/home/adria/Escritorio/rDock_CMTR_LC/2pxcA_model/inputs_sah

>  <Rbt.Executable>
rbdock ($Id: //depot/dev/client3/rdock/2013.1/src/exe/rbdock.cxx#4 $)

>  <Rbt.Library>
libRbt.so (2013.1, Build901 2013/11/27)

>  <Rbt.Parameter_File>
/home/adria/Escritorio/rDock_2013.1_src/data/scripts/dock.prm

>  <Rbt.Receptor>
sah_rdock.prm

>  <SCORE>
-276.99

>  <SCORE.INTER>
-11.1074

>  <SCORE.INTER.CONST>
1

>  <SCORE.INTER.POLAR>
-0.827858

>  <SCORE.INTER.REPUL>
0

>  <SCORE.INTER.ROT>
7

>  <SCORE.INTER.VDW>
-20.6927

>  <SCORE.INTER.norm>
-0.411385

>  <SCORE.INTRA>
-263.859

>  <SCORE.INTRA.DIHEDRAL>
-0.761019

>  <SCORE.INTRA.DIHEDRAL.0>
6.08329

>  <SCORE.INTRA.POLAR>
0

>  <SCORE.INTRA.POLAR.0>
0

>  <SCORE.INTRA.REPUL>
0

>  <SCORE.INTRA.REPUL.0>
0

>  <SCORE.INTRA.VDW>
-263.478

>  <SCORE.INTRA.VDW.0>
260.094

>  <SCORE.INTRA.norm>
-9.77255

>  <SCORE.RESTR>
0

>  <SCORE.RESTR.CAVITY>
0

>  <SCORE.RESTR.norm>
0

>  <SCORE.SYSTEM>
-2.02358

>  <SCORE.SYSTEM.CONST>
0

>  <SCORE.SYSTEM.DIHEDRAL>
6.54025

>  <SCORE.SYSTEM.POLAR>
-4.47511

>  <SCORE.SYSTEM.REPUL>
0.0369531

>  <SCORE.SYSTEM.VDW>
9.73689

>  <SCORE.SYSTEM.norm>
-0.0749475

>  <SCORE.heavy>
27

>  <SCORE.norm>
-10.2589

$$$$
F2393-0259
  rDOCK(R)          3D
libRbt.so/2013.1/901 2013/11/27
 28 30  0  0  0  0  0  0  0  0999 V2000
  -15.5255   12.9175  -16.9723 C   0  0  0  0  0  0
  -15.1911   14.1293  -17.8109 C   0  0  0  0  0  0
  -15.2418   13.9330  -19.3150 C   0  0  0  0  0  0
  -16.1049   15.2677  -17.4616 C   0  0  0  0  0  0
  -15.3386   16.8050  -17.5655 C   0  0  0  0  0  0
  -16.3953   18.4235  -17.2136 C   0  0  0  0  0  0
  -18.0919   18.3036  -16.9775 C   0  0  0  0  0  0
  -18.7682   16.7192  -16.8966 C   0  0  0  0  0  0
  -17.8112   15.2521  -17.1444 C   0  0  0  0  0  0
  -18.7916   19.8601  -17.3674 S   0  0  0  0  0  0
  -18.2128   20.3006  -18.6126 O   0  0  0  0  0  0
  -20.2237   19.7740  -17.1787 O   0  0  0  0  0  0
  -18.1500   20.7944  -16.1053 N   0  0  0  0  0  0
  -18.9200   21.6939  -15.1567 C   0  0  0  0  0  0
  -19.5071   21.1558  -13.7853 C   0  0  0  0  0  0
  -20.2969   22.0291  -12.9056 N   0  0  0  0  0  0
  -21.6415   23.1051  -13.5510 C   0  0  0  0  0  0
  -23.0793   23.6637  -12.4212 C   0  0  0  0  0  0
  -23.7401   22.7561  -11.1108 N   0  0  0  0  0  0
  -23.8402   23.5442   -9.8611 C   0  0  0  0  0  0
  -22.7459   21.3655  -10.5431 C   0  0  0  0  0  0
  -20.7015   20.9894  -11.3696 C   0  0  0  0  0  0
  -20.3678   19.8633  -13.9203 C   0  0  0  0  0  0
  -19.9509   18.6007  -13.5068 C   0  0  0  0  0  0
  -21.1656   17.4006  -13.6277 S   0  0  0  0  0  0
  -22.3042   18.5373  -14.1884 C   0  0  0  0  0  0
  -21.7632   19.7998  -14.2824 C   0  0  0  0  0  0
  -17.1841   21.0540  -16.2981 H   0  0  0  0  0  0
  1  2  1  0  0  0
  2  3  1  0  0  0
  2  4  1  0  0  0
  4  5  2  0  0  0
  4  9  1  0  0  0
  5  6  1  0  0  0
  6  7  2  0  0  0
  7  8  1  0  0  0
  7 10  1  0  0  0
  8  9  2  0  0  0
 10 11  2  0  0  0
 10 12  2  0  0  0
 10 13  1  0  0  0
 13 14  1  0  0  0
 13 28  1  0  0  0
 14 15  1  0  0  0
 15 16  1  0  0  0
 15 23  1  0  0  0
 16 17  1  0  0  0
 16 22  1  0  0  0
 17 18  1  0  0  0
 18 19  1  0  0  0
 19 20  1  0  0  0
 19 21  1  0  0  0
 21 22  1  0  0  0
 23 24  2  0  0  0
 23 27  1  0  0  0
 24 25  1  0  0  0
 25 26  1  0  0  0
 26 27  2  0  0  0
M  END
>  <CHROM.0>
-65.22752010,-170.60014503,-46.85861710,66.49307445,-30.71482517,179.76526473
83.90360452,-161.48993981

>  <CHROM.1>
145.69075117,46.22653536,-128.17349726,90.01528075,-177.49482220,46.03657122
107.19532751,-19.47401815,19.14904496,-15.10716958,0.43891352,-0.89402770
2.84106912

>  <Name>
F2393-0259

>  <RI>
2.3751e+07

>  <Rbt.Current_Directory>
/home/adria/Escritorio/rDock_CMTR_LC/2pxcA_model/inputs_sah

>  <Rbt.Executable>
rbdock ($Id: //depot/dev/client3/rdock/2013.1/src/exe/rbdock.cxx#4 $)

>  <Rbt.Library>
libRbt.so (2013.1, Build901 2013/11/27)

>  <Rbt.Parameter_File>
/home/adria/Escritorio/rDock_2013.1_src/data/scripts/dock.prm

>  <Rbt.Receptor>
sah_rdock.prm

>  <SCORE>
-278.935

>  <SCORE.INTER>
-9.24934

>  <SCORE.INTER.CONST>
1

>  <SCORE.INTER.POLAR>
-0.497614

>  <SCORE.INTER.REPUL>
0.5206

>  <SCORE.INTER.ROT>
7

>  <SCORE.INTER.VDW>
-22.5605

>  <SCORE.INTER.norm>
-0.342568

>  <SCORE.INTRA>
-263.421

>  <SCORE.INTRA.DIHEDRAL>
0.269649

>  <SCORE.INTRA.DIHEDRAL.0>
6.08329

>  <SCORE.INTRA.POLAR>
0

>  <SCORE.INTRA.POLAR.0>
0

>  <SCORE.INTRA.REPUL>
0

>  <SCORE.INTRA.REPUL.0>
0

>  <SCORE.INTRA.VDW>
-263.556

>  <SCORE.INTRA.VDW.0>
260.094

>  <SCORE.INTRA.norm>
-9.75635

>  <SCORE.RESTR>
0

>  <SCORE.RESTR.CAVITY>
0

>  <SCORE.RESTR.norm>
0

>  <SCORE.SYSTEM>
-6.26381

>  <SCORE.SYSTEM.CONST>
0

>  <SCORE.SYSTEM.DIHEDRAL>
6.36136

>  <SCORE.SYSTEM.POLAR>
-3.6925

>  <SCORE.SYSTEM.VDW>
3.11003

>  <SCORE.SYSTEM.norm>
-0.231993

>  <SCORE.heavy>
27

>  <SCORE.norm>
-10.3309

$$$$
F2393-0259
  rDOCK(R)          3D
libRbt.so/2013.1/901 2013/11/27
 28 30  0  0  0  0  0  0  0  0999 V2000
  -17.9068   14.6761  -18.9693 C   0  0  0  0  0  0
  -17.0135   15.2025  -17.8698 C   0  0  0  0  0  0
  -15.5736   15.4829  -18.2586 C   0  0  0  0  0  0
  -17.5911   16.4623  -17.2934 C   0  0  0  0  0  0
  -18.1705   16.2652  -15.6850 C   0  0  0  0  0  0
  -18.8985   17.8236  -14.7355 C   0  0  0  0  0  0
  -18.7938   19.3839  -15.4449 C   0  0  0  0  0  0
  -18.1912   19.4795  -17.0579 C   0  0  0  0  0  0
  -17.5967   18.0702  -17.9468 C   0  0  0  0  0  0
  -18.8762   20.5599  -14.1509 S   0  0  0  0  0  0
  -17.7941   20.2833  -13.2386 O   0  0  0  0  0  0
  -19.0647   21.8688  -14.7384 O   0  0  0  0  0  0
  -20.3366   20.0944  -13.4242 N   0  0  0  0  0  0
  -20.5058   19.1760  -12.2285 C   0  0  0  0  0  0
  -21.9287   18.6344  -11.7846 C   0  0  0  0  0  0
  -22.9584   19.5472  -11.2679 N   0  0  0  0  0  0
  -22.9065   20.2048   -9.5512 C   0  0  0  0  0  0
  -23.7614   21.8563   -9.1065 C   0  0  0  0  0  0
  -23.9499   23.2078  -10.1625 N   0  0  0  0  0  0
  -25.3428   23.7082  -10.2096 C   0  0  0  0  0  0
  -23.6594   22.8813  -11.9099 C   0  0  0  0  0  0
  -23.2784   20.8058  -12.6526 C   0  0  0  0  0  0
  -22.6650   17.7994  -12.8755 C   0  0  0  0  0  0
  -23.8202   17.0573  -12.6436 C   0  0  0  0  0  0
  -24.4981   16.3775  -14.0609 S   0  0  0  0  0  0
  -23.3003   17.0934  -15.0384 C   0  0  0  0  0  0
  -22.4054   17.8293  -14.2947 C   0  0  0  0  0  0
  -21.1015   20.1146  -14.0966 H   0  0  0  0  0  0
  1  2  1  0  0  0
  2  3  1  0  0  0
  2  4  1  0  0  0
  4  5  2  0  0  0
  4  9  1  0  0  0
  5  6  1  0  0  0
  6  7  2  0  0  0
  7  8  1  0  0  0
  7 10  1  0  0  0
  8  9  2  0  0  0
 10 11  2  0  0  0
 10 12  2  0  0  0
 10 13  1  0  0  0
 13 14  1  0  0  0
 13 28  1  0  0  0
 14 15  1  0  0  0
 15 16  1  0  0  0
 15 23  1  0  0  0
 16 17  1  0  0  0
 16 22  1  0  0  0
 17 18  1  0  0  0
 18 19  1  0  0  0
 19 20  1  0  0  0
 19 21  1  0  0  0
 21 22  1  0  0  0
 23 24  2  0  0  0
 23 27  1  0  0  0
 24 25  1  0  0  0
 25 26  1  0  0  0
 26 27  2  0  0  0
M  END
>  <CHROM.0>
-62.02259293,64.54632105,78.51104654,58.32097830,-29.96923424,59.62619719
-155.87744389,-48.07149213

>  <CHROM.1>
110.74383524,57.98159736,95.64474623,-170.11578785,-66.34178920,-77.33886282
169.64683401,-20.85035393,18.97767542,-13.92989004,0.80817474,-0.46793792
-2.60972179

>  <Name>
F2393-0259

>  <RI>
2.3751e+07

>  <Rbt.Current_Directory>
/home/adria/Escritorio/rDock_CMTR_LC/2pxcA_model/inputs_sah

>  <Rbt.Executable>
rbdock ($Id: //depot/dev/client3/rdock/2013.1/src/exe/rbdock.cxx#4 $)

>  <Rbt.Library>
libRbt.so (2013.1, Build901 2013/11/27)

>  <Rbt.Parameter_File>
/home/adria/Escritorio/rDock_2013.1_src/data/scripts/dock.prm

>  <Rbt.Receptor>
sah_rdock.prm

>  <SCORE>
-277.146

>  <SCORE.INTER>
-8.30845

>  <SCORE.INTER.CONST>
1

>  <SCORE.INTER.POLAR>
0

>  <SCORE.INTER.REPUL>
0.00222793

>  <SCORE.INTER.ROT>
7

>  <SCORE.INTER.VDW>
-20.7196

>  <SCORE.INTER.norm>
-0.30772

>  <SCORE.INTRA>
-263.551

>  <SCORE.INTRA.DIHEDRAL>
-1.03591

>  <SCORE.INTRA.DIHEDRAL.0>
6.08329

>  <SCORE.INTRA.POLAR>
0

>  <SCORE.INTRA.POLAR.0>
0

>  <SCORE.INTRA.REPUL>
0

>  <SCORE.INTRA.REPUL.0>
0

>  <SCORE.INTRA.VDW>
-263.033

>  <SCORE.INTRA.VDW.0>
260.094

>  <SCORE.INTRA.norm>
-9.76114

>  <SCORE.RESTR>
0.0224345

>  <SCORE.RESTR.CAVITY>
0.0224345

>  <SCORE.RESTR.norm>
0.000830907

>  <SCORE.SYSTEM>
-5.30864

>  <SCORE.SYSTEM.CONST>
0

>  <SCORE.SYSTEM.DIHEDRAL>
8.43245

>  <SCORE.SYSTEM.POLAR>
-3.48344

>  <SCORE.SYSTEM.REPUL>
0.0166881

>  <SCORE.SYSTEM.VDW>
2.2354

>  <SCORE.SYSTEM.norm>
-0.196616

>  <SCORE.heavy>
27

>  <SCORE.norm>
-10.2646

$$$$
F2393-0259
  rDOCK(R)          3D
libRbt.so/2013.1/901 2013/11/27
 28 30  0  0  0  0  0  0  0  0999 V2000
  -23.4126   23.9621   -9.7551 C   0  0  0  0  0  0
  -23.5002   22.5406   -9.2497 C   0  0  0  0  0  0
  -24.7856   22.1658   -8.5352 C   0  0  0  0  0  0
  -23.3021   21.5761  -10.3826 C   0  0  0  0  0  0
  -22.3532   20.2082   -9.9467 C   0  0  0  0  0  0
  -22.0442   18.7979  -11.2791 C   0  0  0  0  0  0
  -22.8545   18.8569  -12.7919 C   0  0  0  0  0  0
  -23.7889   20.2657  -13.1331 C   0  0  0  0  0  0
  -24.0172   21.5738  -11.9640 C   0  0  0  0  0  0
  -22.9184   17.2250  -13.4219 S   0  0  0  0  0  0
  -23.4778   16.3810  -12.3950 O   0  0  0  0  0  0
  -23.4748   17.2752  -14.7568 O   0  0  0  0  0  0
  -21.2595   16.8972  -13.5556 N   0  0  0  0  0  0
  -20.3492   17.2665  -14.7118 C   0  0  0  0  0  0
  -19.0923   18.2137  -14.5172 C   0  0  0  0  0  0
  -18.1833   18.5044  -15.6351 N   0  0  0  0  0  0
  -17.0539   19.9557  -15.6220 C   0  0  0  0  0  0
  -15.4448   19.9565  -16.6548 C   0  0  0  0  0  0
  -14.4860   18.5704  -17.0245 N   0  0  0  0  0  0
  -14.1714   18.4598  -18.4673 C   0  0  0  0  0  0
  -15.2732   16.9759  -16.7372 C   0  0  0  0  0  0
  -17.4223   16.8376  -16.1319 C   0  0  0  0  0  0
  -19.4314   19.6135  -13.9212 C   0  0  0  0  0  0
  -20.2026   20.5733  -14.5717 C   0  0  0  0  0  0
  -20.5466   21.9474  -13.6105 S   0  0  0  0  0  0
  -19.7199   21.2843  -12.2764 C   0  0  0  0  0  0
  -19.1933   20.0454  -12.5651 C   0  0  0  0  0  0
  -21.0077   16.0658  -13.0236 H   0  0  0  0  0  0
  1  2  1  0  0  0
  2  3  1  0  0  0
  2  4  1  0  0  0
  4  5  2  0  0  0
  4  9  1  0  0  0
  5  6  1  0  0  0
  6  7  2  0  0  0
  7  8  1  0  0  0
  7 10  1  0  0  0
  8  9  2  0  0  0
 10 11  2  0  0  0
 10 12  2  0  0  0
 10 13  1  0  0  0
 13 14  1  0  0  0
 13 28  1  0  0  0
 14 15  1  0  0  0
 15 16  1  0  0  0
 15 23  1  0  0  0
 16 17  1  0  0  0
 16 22  1  0  0  0
 17 18  1  0  0  0
 18 19  1  0  0  0
 19 20  1  0  0  0
 19 21  1  0  0  0
 21 22  1  0  0  0
 23 24  2  0  0  0
 23 27  1  0  0  0
 24 25  1  0  0  0
 25 26  1  0  0  0
 26 27  2  0  0  0
M  END
>  <CHROM.0>
-61.29456638,63.37959140,-44.63257086,-59.79035362,-30.39556223,-60.46552883
81.67447558,-165.18964477

>  <CHROM.1>
140.39640381,52.24587223,-84.30098384,119.39633312,176.83642158,160.69739746
-65.33093668,-20.53824281,19.44148959,-13.50745955,-2.60727704,-0.50319572
-2.68222644

>  <Name>
F2393-0259

>  <RI>
2.3751e+07

>  <Rbt.Current_Directory>
/home/adria/Escritorio/rDock_CMTR_LC/2pxcA_model/inputs_sah

>  <Rbt.Executable>
rbdock ($Id: //depot/dev/client3/rdock/2013.1/src/exe/rbdock.cxx#4 $)

>  <Rbt.Library>
libRbt.so (2013.1, Build901 2013/11/27)

>  <Rbt.Parameter_File>
/home/adria/Escritorio/rDock_2013.1_src/data/scripts/dock.prm

>  <Rbt.Receptor>
sah_rdock.prm

>  <SCORE>
-283.413

>  <SCORE.INTER>
-11.9382

>  <SCORE.INTER.CONST>
1

>  <SCORE.INTER.POLAR>
0

>  <SCORE.INTER.REPUL>
0

>  <SCORE.INTER.ROT>
7

>  <SCORE.INTER.VDW>
-24.3382

>  <SCORE.INTER.norm>
-0.442154

>  <SCORE.INTRA>
-264.595

>  <SCORE.INTRA.DIHEDRAL>
0.740333

>  <SCORE.INTRA.DIHEDRAL.0>
6.08329

>  <SCORE.INTRA.POLAR>
0

>  <SCORE.INTRA.POLAR.0>
0

>  <SCORE.INTRA.REPUL>
0

>  <SCORE.INTRA.REPUL.0>
0

>  <SCORE.INTRA.VDW>
-264.965

>  <SCORE.INTRA.VDW.0>
260.094

>  <SCORE.INTRA.norm>
-9.79982

>  <SCORE.RESTR>
0

>  <SCORE.RESTR.CAVITY>
0

>  <SCORE.RESTR.norm>
0

>  <SCORE.SYSTEM>
-6.87954

>  <SCORE.SYSTEM.CONST>
0

>  <SCORE.SYSTEM.DIHEDRAL>
5.49617

>  <SCORE.SYSTEM.POLAR>
-3.62826

>  <SCORE.SYSTEM.VDW>
2.70844

>  <SCORE.SYSTEM.norm>
-0.254798

>  <SCORE.heavy>
27

>  <SCORE.norm>
-10.4968

$$$$
F2393-0259
  rDOCK(R)          3D
libRbt.so/2013.1/901 2013/11/27
 28 30  0  0  0  0  0  0  0  0999 V2000
  -23.8967   24.8998  -13.1590 C   0  0  0  0  0  0
  -23.1902   24.2123  -12.0136 C   0  0  0  0  0  0
  -24.0578   23.8318  -10.8280 C   0  0  0  0  0  0
  -22.5025   22.9703  -12.5014 C   0  0  0  0  0  0
  -20.9289   23.2721  -13.1290 C   0  0  0  0  0  0
  -19.8432   21.7573  -13.7509 C   0  0  0  0  0  0
  -20.3969   20.1502  -13.5074 C   0  0  0  0  0  0
  -21.9847   19.9506  -12.8646 C   0  0  0  0  0  0
  -22.9975   21.3124  -12.3652 C   0  0  0  0  0  0
  -18.9964   19.1000  -13.5237 S   0  0  0  0  0  0
  -17.9155   19.8020  -12.8768 O   0  0  0  0  0  0
  -19.4134   17.7810  -13.0991 O   0  0  0  0  0  0
  -18.6916   19.0438  -15.1914 N   0  0  0  0  0  0
  -18.1815   17.8548  -15.9836 C   0  0  0  0  0  0
  -16.6345   17.5234  -16.0919 C   0  0  0  0  0  0
  -16.1615   16.3587  -16.8537 N   0  0  0  0  0  0
  -16.1155   14.6703  -16.1260 C   0  0  0  0  0  0
  -16.1969   13.1187  -17.2404 C   0  0  0  0  0  0
  -17.0387   13.0017  -18.7421 N   0  0  0  0  0  0
  -16.1970   12.4518  -19.8293 C   0  0  0  0  0  0
  -17.5453   14.5656  -19.4784 C   0  0  0  0  0  0
  -16.9318   16.5208  -18.5812 C   0  0  0  0  0  0
  -15.7611   18.7053  -16.6115 C   0  0  0  0  0  0
  -15.5957   19.9107  -15.9343 C   0  0  0  0  0  0
  -14.4521   20.9572  -16.6605 S   0  0  0  0  0  0
  -14.1024   19.8150  -17.8753 C   0  0  0  0  0  0
  -14.8463   18.6661  -17.7268 C   0  0  0  0  0  0
  -18.4552   19.9673  -15.5505 H   0  0  0  0  0  0
  1  2  1  0  0  0
  2  3  1  0  0  0
  2  4  1  0  0  0
  4  5  2  0  0  0
  4  9  1  0  0  0
  5  6  1  0  0  0
  6  7  2  0  0  0
  7  8  1  0  0  0
  7 10  1  0  0  0
  8  9  2  0  0  0
 10 11  2  0  0  0
 10 12  2  0  0  0
 10 13  1  0  0  0
 13 14  1  0  0  0
 13 28  1  0  0  0
 14 15  1  0  0  0
 15 16  1  0  0  0
 15 23  1  0  0  0
 16 17  1  0  0  0
 16 22  1  0  0  0
 17 18  1  0  0  0
 18 19  1  0  0  0
 19 20  1  0  0  0
 19 21  1  0  0  0
 21 22  1  0  0  0
 23 24  2  0  0  0
 23 27  1  0  0  0
 24 25  1  0  0  0
 25 26  1  0  0  0
 26 27  2  0  0  0
M  END
>  <CHROM.0>
-177.77968623,70.79544469,-9.68055500,66.74552044,168.41151317,61.93122533
83.00696189,-166.70069308

>  <CHROM.1>
85.76365683,37.00425602,-144.34270673,-84.35062183,179.39265184,-83.36780613
64.18970405,-18.37834787,19.01274606,-15.26627927,-2.25651469,-0.46128572
-2.84014848

>  <Name>
F2393-0259

>  <RI>
2.3751e+07

>  <Rbt.Current_Directory>
/home/adria/Escritorio/rDock_CMTR_LC/2pxcA_model/inputs_sah

>  <Rbt.Executable>
rbdock ($Id: //depot/dev/client3/rdock/2013.1/src/exe/rbdock.cxx#4 $)

>  <Rbt.Library>
libRbt.so (2013.1, Build901 2013/11/27)

>  <Rbt.Parameter_File>
/home/adria/Escritorio/rDock_2013.1_src/data/scripts/dock.prm

>  <Rbt.Receptor>
sah_rdock.prm

>  <SCORE>
-282.404

>  <SCORE.INTER>
-18.4608

>  <SCORE.INTER.CONST>
1

>  <SCORE.INTER.POLAR>
-0.824621

>  <SCORE.INTER.REPUL>
0

>  <SCORE.INTER.ROT>
7

>  <SCORE.INTER.VDW>
-28.0571

>  <SCORE.INTER.norm>
-0.683732

>  <SCORE.INTRA>
-262.491

>  <SCORE.INTRA.DIHEDRAL>
-1.11449

>  <SCORE.INTRA.DIHEDRAL.0>
6.08329

>  <SCORE.INTRA.POLAR>
0

>  <SCORE.INTRA.POLAR.0>
0

>  <SCORE.INTRA.REPUL>
0

>  <SCORE.INTRA.REPUL.0>
0

>  <SCORE.INTRA.VDW>
-261.934

>  <SCORE.INTRA.VDW.0>
260.094

>  <SCORE.INTRA.norm>
-9.72189

>  <SCORE.RESTR>
0

>  <SCORE.RESTR.CAVITY>
0

>  <SCORE.RESTR.norm>
0

>  <SCORE.SYSTEM>
-1.45249

>  <SCORE.SYSTEM.CONST>
0

>  <SCORE.SYSTEM.DIHEDRAL>
6.24162

>  <SCORE.SYSTEM.POLAR>
-4.12441

>  <SCORE.SYSTEM.VDW>
9.44969

>  <SCORE.SYSTEM.norm>
-0.053796

>  <SCORE.heavy>
27

>  <SCORE.norm>
-10.4594

$$$$
F2393-0259
  rDOCK(R)          3D
libRbt.so/2013.1/901 2013/11/27
 28 30  0  0  0  0  0  0  0  0999 V2000
  -15.4249   14.9023  -17.6281 C   0  0  0  0  0  0
  -16.5758   15.6334  -18.2798 C   0  0  0  0  0  0
  -17.6998   14.7647  -18.8140 C   0  0  0  0  0  0
  -17.1709   16.6214  -17.3191 C   0  0  0  0  0  0
  -17.1366   18.2387  -17.9061 C   0  0  0  0  0  0
  -17.9363   19.6657  -16.8179 C   0  0  0  0  0  0
  -18.8036   19.2692  -15.3899 C   0  0  0  0  0  0
  -18.7866   17.6195  -14.8876 C   0  0  0  0  0  0
  -18.0098   16.3371  -15.8266 C   0  0  0  0  0  0
  -19.9098   20.5854  -15.0603 S   0  0  0  0  0  0
  -19.3800   21.7702  -15.6889 O   0  0  0  0  0  0
  -21.2563   20.1215  -15.3164 O   0  0  0  0  0  0
  -19.7110   20.7218  -13.3811 N   0  0  0  0  0  0
  -20.2899   21.7968  -12.4807 C   0  0  0  0  0  0
  -21.7039   22.4553  -12.7667 C   0  0  0  0  0  0
  -22.9385   21.8553  -12.2413 N   0  0  0  0  0  0
  -23.7300   20.3980  -13.0365 C   0  0  0  0  0  0
  -24.8481   19.2176  -12.0303 C   0  0  0  0  0  0
  -24.6692   18.8468  -10.3546 N   0  0  0  0  0  0
  -25.9321   18.9983   -9.5964 C   0  0  0  0  0  0
  -23.5918   19.9478   -9.4210 C   0  0  0  0  0  0
  -22.7191   21.7825  -10.3570 C   0  0  0  0  0  0
  -21.8036   23.9581  -12.3651 C   0  0  0  0  0  0
  -22.8027   24.8205  -12.8089 C   0  0  0  0  0  0
  -22.7539   26.3664  -12.0754 S   0  0  0  0  0  0
  -21.4280   25.9194  -11.1033 C   0  0  0  0  0  0
  -21.0344   24.6216  -11.3401 C   0  0  0  0  0  0
  -18.8341   20.2987  -13.0819 H   0  0  0  0  0  0
  1  2  1  0  0  0
  2  3  1  0  0  0
  2  4  1  0  0  0
  4  5  2  0  0  0
  4  9  1  0  0  0
  5  6  1  0  0  0
  6  7  2  0  0  0
  7  8  1  0  0  0
  7 10  1  0  0  0
  8  9  2  0  0  0
 10 11  2  0  0  0
 10 12  2  0  0  0
 10 13  1  0  0  0
 13 14  1  0  0  0
 13 28  1  0  0  0
 14 15  1  0  0  0
 15 16  1  0  0  0
 15 23  1  0  0  0
 16 17  1  0  0  0
 16 22  1  0  0  0
 17 18  1  0  0  0
 18 19  1  0  0  0
 19 20  1  0  0  0
 19 21  1  0  0  0
 21 22  1  0  0  0
 23 24  2  0  0  0
 23 27  1  0  0  0
 24 25  1  0  0  0
 25 26  1  0  0  0
 26 27  2  0  0  0
M  END
>  <CHROM.0>
-59.05619160,-72.57268290,-41.87913872,64.45426140,-31.58472971,62.51346797
-36.96371148,-47.26004155

>  <CHROM.1>
121.52309609,-24.04607854,172.84134396,33.64096200,87.78196947,-78.85923475
163.57726472,-20.75873970,20.52597125,-13.82735767,0.75878987,-0.73041012
-3.02325444

>  <Name>
F2393-0259

>  <RI>
2.3751e+07

>  <Rbt.Current_Directory>
/home/adria/Escritorio/rDock_CMTR_LC/2pxcA_model/inputs_sah

>  <Rbt.Executable>
rbdock ($Id: //depot/dev/client3/rdock/2013.1/src/exe/rbdock.cxx#4 $)

>  <Rbt.Library>
libRbt.so (2013.1, Build901 2013/11/27)

>  <Rbt.Parameter_File>
/home/adria/Escritorio/rDock_2013.1_src/data/scripts/dock.prm

>  <Rbt.Receptor>
sah_rdock.prm

>  <SCORE>
-278.151

>  <SCORE.INTER>
-10.6772

>  <SCORE.INTER.CONST>
1

>  <SCORE.INTER.POLAR>
0

>  <SCORE.INTER.REPUL>
0

>  <SCORE.INTER.ROT>
7

>  <SCORE.INTER.VDW>
-23.0772

>  <SCORE.INTER.norm>
-0.395452

>  <SCORE.INTRA>
-262.11

>  <SCORE.INTRA.DIHEDRAL>
1.00551

>  <SCORE.INTRA.DIHEDRAL.0>
6.08329

>  <SCORE.INTRA.POLAR>
0

>  <SCORE.INTRA.POLAR.0>
0

>  <SCORE.INTRA.REPUL>
0

>  <SCORE.INTRA.REPUL.0>
0

>  <SCORE.INTRA.VDW>
-262.613

>  <SCORE.INTRA.VDW.0>
260.094

>  <SCORE.INTRA.norm>
-9.70778

>  <SCORE.RESTR>
0

>  <SCORE.RESTR.CAVITY>
0

>  <SCORE.RESTR.norm>
0

>  <SCORE.SYSTEM>
-5.36395

>  <SCORE.SYSTEM.CONST>
0

>  <SCORE.SYSTEM.DIHEDRAL>
8.6678

>  <SCORE.SYSTEM.POLAR>
-3.64735

>  <SCORE.SYSTEM.REPUL>
0.0565218

>  <SCORE.SYSTEM.VDW>
2.42052

>  <SCORE.SYSTEM.norm>
-0.198665

>  <SCORE.heavy>
27

>  <SCORE.norm>
-10.3019

$$$$
F2393-0259
  rDOCK(R)          3D
libRbt.so/2013.1/901 2013/11/27
 28 30  0  0  0  0  0  0  0  0999 V2000
  -20.1570   25.0513  -10.4197 C   0  0  0  0  0  0
  -21.4826   24.5497  -10.9443 C   0  0  0  0  0  0
  -21.9641   25.1724  -12.2418 C   0  0  0  0  0  0
  -21.4332   23.0617  -11.1353 C   0  0  0  0  0  0
  -22.8374   22.2585  -10.5483 C   0  0  0  0  0  0
  -22.9881   20.3127  -10.7744 C   0  0  0  0  0  0
  -21.8136   19.4645  -11.6961 C   0  0  0  0  0  0
  -20.4462   20.3586  -12.2482 C   0  0  0  0  0  0
  -20.2684   22.0997  -11.9898 C   0  0  0  0  0  0
  -22.5550   17.9837  -12.2636 S   0  0  0  0  0  0
  -22.8581   17.1754  -11.1084 O   0  0  0  0  0  0
  -23.5643   18.3274  -13.2419 O   0  0  0  0  0  0
  -21.2405   17.2936  -13.0842 N   0  0  0  0  0  0
  -20.4366   17.9227  -14.2066 C   0  0  0  0  0  0
  -19.1340   17.2324  -14.7911 C   0  0  0  0  0  0
  -19.2105   15.9428  -15.4921 N   0  0  0  0  0  0
  -18.5798   15.7252  -17.2059 C   0  0  0  0  0  0
  -18.0295   14.0068  -17.8385 C   0  0  0  0  0  0
  -17.3271   12.7583  -16.8766 N   0  0  0  0  0  0
  -17.9958   11.4497  -17.0592 C   0  0  0  0  0  0
  -17.4857   12.9619  -15.0939 C   0  0  0  0  0  0
  -18.6942   14.6300  -14.2217 C   0  0  0  0  0  0
  -18.3004   18.1413  -15.7442 C   0  0  0  0  0  0
  -16.9123   18.1000  -15.8467 C   0  0  0  0  0  0
  -16.2838   19.0934  -17.0911 S   0  0  0  0  0  0
  -17.8476   19.5730  -17.5678 C   0  0  0  0  0  0
  -18.8215   18.9884  -16.7898 C   0  0  0  0  0  0
  -21.3007   16.2767  -13.0797 H   0  0  0  0  0  0
  1  2  1  0  0  0
  2  3  1  0  0  0
  2  4  1  0  0  0
  4  5  2  0  0  0
  4  9  1  0  0  0
  5  6  1  0  0  0
  6  7  2  0  0  0
  7  8  1  0  0  0
  7 10  1  0  0  0
  8  9  2  0  0  0
 10 11  2  0  0  0
 10 12  2  0  0  0
 10 13  1  0  0  0
 13 14  1  0  0  0
 13 28  1  0  0  0
 14 15  1  0  0  0
 15 16  1  0  0  0
 15 23  1  0  0  0
 16 17  1  0  0  0
 16 22  1  0  0  0
 17 18  1  0  0  0
 18 19  1  0  0  0
 19 20  1  0  0  0
 19 21  1  0  0  0
 21 22  1  0  0  0
 23 24  2  0  0  0
 23 27  1  0  0  0
 24 25  1  0  0  0
 25 26  1  0  0  0
 26 27  2  0  0  0
M  END
>  <CHROM.0>
-59.62631185,-74.49122643,-7.21136235,-147.79947230,169.31041863,-62.80685532
-156.30851497,-163.89349542

>  <CHROM.1>
135.61221254,-64.66946164,-56.15218591,173.56348465,64.80056347,123.72900204
146.36309631,-19.92798660,18.44351205,-14.04577058,-2.12775872,-0.74159262
-2.94277955

>  <Name>
F2393-0259

>  <RI>
2.3751e+07

>  <Rbt.Current_Directory>
/home/adria/Escritorio/rDock_CMTR_LC/2pxcA_model/inputs_sah

>  <Rbt.Executable>
rbdock ($Id: //depot/dev/client3/rdock/2013.1/src/exe/rbdock.cxx#4 $)

>  <Rbt.Library>
libRbt.so (2013.1, Build901 2013/11/27)

>  <Rbt.Parameter_File>
/home/adria/Escritorio/rDock_2013.1_src/data/scripts/dock.prm

>  <Rbt.Receptor>
sah_rdock.prm

>  <SCORE>
-271.529

>  <SCORE.INTER>
-10.4865

>  <SCORE.INTER.CONST>
1

>  <SCORE.INTER.POLAR>
-0.106652

>  <SCORE.INTER.REPUL>
0.000300197

>  <SCORE.INTER.ROT>
7

>  <SCORE.INTER.VDW>
-22.5254

>  <SCORE.INTER.norm>
-0.388391

>  <SCORE.INTRA>
-261.858

>  <SCORE.INTRA.DIHEDRAL>
-0.000887817

>  <SCORE.INTRA.DIHEDRAL.0>
6.08329

>  <SCORE.INTRA.POLAR>
0

>  <SCORE.INTRA.POLAR.0>
0

>  <SCORE.INTRA.REPUL>
0

>  <SCORE.INTRA.REPUL.0>
0

>  <SCORE.INTRA.VDW>
-261.857

>  <SCORE.INTRA.VDW.0>
260.094

>  <SCORE.INTRA.norm>
-9.69844

>  <SCORE.RESTR>
0.00953575

>  <SCORE.RESTR.CAVITY>
0.00953575

>  <SCORE.RESTR.norm>
0.000353176

>  <SCORE.SYSTEM>
0.805561

>  <SCORE.SYSTEM.CONST>
0

>  <SCORE.SYSTEM.DIHEDRAL>
10.6296

>  <SCORE.SYSTEM.POLAR>
-4.61382

>  <SCORE.SYSTEM.REPUL>
0.0410891

>  <SCORE.SYSTEM.VDW>
10.9723

>  <SCORE.SYSTEM.norm>
0.0298356

>  <SCORE.heavy>
27

>  <SCORE.norm>
-10.0566

$$$$
F2393-0259
  rDOCK(R)          3D
libRbt.so/2013.1/901 2013/11/27
 28 30  0  0  0  0  0  0  0  0999 V2000
  -17.6547   12.9057  -14.9211 C   0  0  0  0  0  0
  -16.9699   13.6776  -16.0252 C   0  0  0  0  0  0
  -17.2379   13.1965  -17.4394 C   0  0  0  0  0  0
  -17.3455   15.1290  -15.9510 C   0  0  0  0  0  0
  -15.9922   16.1841  -16.0800 C   0  0  0  0  0  0
  -16.2925   18.1257  -16.0757 C   0  0  0  0  0  0
  -17.8938   18.7443  -16.1164 C   0  0  0  0  0  0
  -19.1837   17.6066  -15.9901 C   0  0  0  0  0  0
  -18.9201   15.8585  -15.9243 C   0  0  0  0  0  0
  -17.8183   20.3651  -16.7735 S   0  0  0  0  0  0
  -16.6632   21.0146  -16.2046 O   0  0  0  0  0  0
  -18.0228   20.2849  -18.2038 O   0  0  0  0  0  0
  -19.2163   21.0286  -16.0787 N   0  0  0  0  0  0
  -19.3260   21.7080  -14.7267 C   0  0  0  0  0  0
  -20.2225   21.1129  -13.5618 C   0  0  0  0  0  0
  -21.4207   21.8224  -13.0911 N   0  0  0  0  0  0
  -22.7540   20.9700  -12.1541 C   0  0  0  0  0  0
  -23.8974   21.9427  -10.9698 C   0  0  0  0  0  0
  -23.4494   23.3384  -10.0594 N   0  0  0  0  0  0
  -24.4071   24.4568  -10.2170 C   0  0  0  0  0  0
  -21.9191   24.1432  -10.5643 C   0  0  0  0  0  0
  -20.8024   23.4715  -12.3825 C   0  0  0  0  0  0
  -20.7107   19.6537  -13.8111 C   0  0  0  0  0  0
  -20.3533   18.5648  -13.0203 C   0  0  0  0  0  0
  -21.1695   17.1175  -13.4320 S   0  0  0  0  0  0
  -22.0649   17.9080  -14.6469 C   0  0  0  0  0  0
  -21.7416   19.2434  -14.7338 C   0  0  0  0  0  0
  -20.0527   20.5609  -16.4242 H   0  0  0  0  0  0
  1  2  1  0  0  0
  2  3  1  0  0  0
  2  4  1  0  0  0
  4  5  2  0  0  0
  4  9  1  0  0  0
  5  6  1  0  0  0
  6  7  2  0  0  0
  7  8  1  0  0  0
  7 10  1  0  0  0
  8  9  2  0  0  0
 10 11  2  0  0  0
 10 12  2  0  0  0
 10 13  1  0  0  0
 13 14  1  0  0  0
 13 28  1  0  0  0
 14 15  1  0  0  0
 15 16  1  0  0  0
 15 23  1  0  0  0
 16 17  1  0  0  0
 16 22  1  0  0  0
 17 18  1  0  0  0
 18 19  1  0  0  0
 19 20  1  0  0  0
 19 21  1  0  0  0
 21 22  1  0  0  0
 23 24  2  0  0  0
 23 27  1  0  0  0
 24 25  1  0  0  0
 25 26  1  0  0  0
 26 27  2  0  0  0
M  END
>  <CHROM.0>
-60.38138679,65.83979852,-9.77382733,59.63150262,-30.37704132,176.67485421
80.90431368,-167.21292132

>  <CHROM.1>
133.02261467,-40.97636396,88.06174978,-116.53044364,-113.37379959,160.47456058
116.35594585,-19.74271066,19.25544098,-14.47597582,0.78096259,-0.75546104
3.13161376

>  <Name>
F2393-0259

>  <RI>
2.3751e+07

>  <Rbt.Current_Directory>
/home/adria/Escritorio/rDock_CMTR_LC/2pxcA_model/inputs_sah

>  <Rbt.Executable>
rbdock ($Id: //depot/dev/client3/rdock/2013.1/src/exe/rbdock.cxx#4 $)

>  <Rbt.Library>
libRbt.so (2013.1, Build901 2013/11/27)

>  <Rbt.Parameter_File>
/home/adria/Escritorio/rDock_2013.1_src/data/scripts/dock.prm

>  <Rbt.Receptor>
sah_rdock.prm

>  <SCORE>
-278.852

>  <SCORE.INTER>
-9.98856

>  <SCORE.INTER.CONST>
1

>  <SCORE.INTER.POLAR>
-0.395169

>  <SCORE.INTER.REPUL>
0.0248903

>  <SCORE.INTER.ROT>
7

>  <SCORE.INTER.VDW>
-21.1694

>  <SCORE.INTER.norm>
-0.369947

>  <SCORE.INTRA>
-262.028

>  <SCORE.INTRA.DIHEDRAL>
3.89649

>  <SCORE.INTRA.DIHEDRAL.0>
6.08329

>  <SCORE.INTRA.POLAR>
0

>  <SCORE.INTRA.POLAR.0>
0

>  <SCORE.INTRA.REPUL>
0

>  <SCORE.INTRA.REPUL.0>
0

>  <SCORE.INTRA.VDW>
-263.976

>  <SCORE.INTRA.VDW.0>
260.094

>  <SCORE.INTRA.norm>
-9.70475

>  <SCORE.RESTR>
0

>  <SCORE.RESTR.CAVITY>
0

>  <SCORE.RESTR.norm>
0

>  <SCORE.SYSTEM>
-6.83483

>  <SCORE.SYSTEM.CONST>
0

>  <SCORE.SYSTEM.DIHEDRAL>
8.30359

>  <SCORE.SYSTEM.POLAR>
-4.18759

>  <SCORE.SYSTEM.VDW>
3.25118

>  <SCORE.SYSTEM.norm>
-0.253142

>  <SCORE.heavy>
27

>  <SCORE.norm>
-10.3278

$$$$
F2393-0259
  rDOCK(R)          3D
libRbt.so/2013.1/901 2013/11/27
 28 30  0  0  0  0  0  0  0  0999 V2000
  -14.5882   20.1910  -16.3830 C   0  0  0  0  0  0
  -15.3821   19.2486  -17.2578 C   0  0  0  0  0  0
  -14.7237   17.9180  -17.5725 C   0  0  0  0  0  0
  -16.7188   18.9679  -16.6351 C   0  0  0  0  0  0
  -17.8223   20.2799  -16.7847 C   0  0  0  0  0  0
  -19.6493   20.0734  -16.0923 C   0  0  0  0  0  0
  -20.1755   18.5473  -15.5068 C   0  0  0  0  0  0
  -18.9974   17.2922  -15.4025 C   0  0  0  0  0  0
  -17.3303   17.4903  -15.9605 C   0  0  0  0  0  0
  -21.9221   18.5115  -15.6182 S   0  0  0  0  0  0
  -22.2928   19.1114  -16.8762 O   0  0  0  0  0  0
  -22.3741   17.1902  -15.2391 O   0  0  0  0  0  0
  -22.3179   19.5828  -14.3639 N   0  0  0  0  0  0
  -22.7054   19.2172  -12.9433 C   0  0  0  0  0  0
  -23.3382   20.2786  -11.9495 C   0  0  0  0  0  0
  -22.5809   21.4654  -11.5271 N   0  0  0  0  0  0
  -22.1996   22.8424  -12.6851 C   0  0  0  0  0  0
  -21.8785   24.6115  -12.0345 C   0  0  0  0  0  0
  -22.5956   25.3126  -10.6304 N   0  0  0  0  0  0
  -21.5986   25.9267   -9.7239 C   0  0  0  0  0  0
  -23.3975   24.1591   -9.5031 C   0  0  0  0  0  0
  -23.2787   21.9492   -9.8292 C   0  0  0  0  0  0
  -24.7167   20.8433  -12.4084 C   0  0  0  0  0  0
  -25.0191   21.1936  -13.7217 C   0  0  0  0  0  0
  -26.6579   21.6278  -13.9586 S   0  0  0  0  0  0
  -27.0301   21.3138  -12.3259 C   0  0  0  0  0  0
  -25.9253   20.8916  -11.6213 C   0  0  0  0  0  0
  -22.7018   20.4510  -14.7330 H   0  0  0  0  0  0
  1  2  1  0  0  0
  2  3  1  0  0  0
  2  4  1  0  0  0
  4  5  2  0  0  0
  4  9  1  0  0  0
  5  6  1  0  0  0
  6  7  2  0  0  0
  7  8  1  0  0  0
  7 10  1  0  0  0
  8  9  2  0  0  0
 10 11  2  0  0  0
 10 12  2  0  0  0
 10 13  1  0  0  0
 13 14  1  0  0  0
 13 28  1  0  0  0
 14 15  1  0  0  0
 15 16  1  0  0  0
 15 23  1  0  0  0
 16 17  1  0  0  0
 16 22  1  0  0  0
 17 18  1  0  0  0
 18 19  1  0  0  0
 19 20  1  0  0  0
 19 21  1  0  0  0
 21 22  1  0  0  0
 23 24  2  0  0  0
 23 27  1  0  0  0
 24 25  1  0  0  0
 25 26  1  0  0  0
 26 27  2  0  0  0
M  END
>  <CHROM.0>
-178.65884857,-167.14806049,-45.56286010,63.42094333,168.27024719,-59.00864512
83.68606989,-58.16758586

>  <CHROM.1>
75.01408609,41.51803273,-97.03707046,-167.17269479,-63.17121828,69.93914683
-41.36628469,-21.63288838,20.56386443,-13.95208892,-0.69041680,0.17611317
0.69176726

>  <Name>
F2393-0259

>  <RI>
2.3751e+07

>  <Rbt.Current_Directory>
/home/adria/Escritorio/rDock_CMTR_LC/2pxcA_model/inputs_sah

>  <Rbt.Executable>
rbdock ($Id: //depot/dev/client3/rdock/2013.1/src/exe/rbdock.cxx#4 $)

>  <Rbt.Library>
libRbt.so (2013.1, Build901 2013/11/27)

>  <Rbt.Parameter_File>
/home/adria/Escritorio/rDock_2013.1_src/data/scripts/dock.prm

>  <Rbt.Receptor>
sah_rdock.prm

>  <SCORE>
-274.205

>  <SCORE.INTER>
-13.1251

>  <SCORE.INTER.CONST>
1

>  <SCORE.INTER.POLAR>
-1.60604

>  <SCORE.INTER.REPUL>
0.133969

>  <SCORE.INTER.ROT>
7

>  <SCORE.INTER.VDW>
-20.7344

>  <SCORE.INTER.norm>
-0.486114

>  <SCORE.INTRA>
-262.323

>  <SCORE.INTRA.DIHEDRAL>
0.558504

>  <SCORE.INTRA.DIHEDRAL.0>
6.08329

>  <SCORE.INTRA.POLAR>
0

>  <SCORE.INTRA.POLAR.0>
0

>  <SCORE.INTRA.REPUL>
0

>  <SCORE.INTRA.REPUL.0>
0

>  <SCORE.INTRA.VDW>
-262.602

>  <SCORE.INTRA.VDW.0>
260.094

>  <SCORE.INTRA.norm>
-9.71567

>  <SCORE.RESTR>
0

>  <SCORE.RESTR.CAVITY>
0

>  <SCORE.RESTR.norm>
0

>  <SCORE.SYSTEM>
1.24367

>  <SCORE.SYSTEM.CONST>
0

>  <SCORE.SYSTEM.DIHEDRAL>
6.68035

>  <SCORE.SYSTEM.POLAR>
-3.21151

>  <SCORE.SYSTEM.VDW>
8.82262

>  <SCORE.SYSTEM.norm>
0.0460617

>  <SCORE.heavy>
27

>  <SCORE.norm>
-10.1557

$$$$
F2393-0259
  rDOCK(R)          3D
libRbt.so/2013.1/901 2013/11/27
 28 30  0  0  0  0  0  0  0  0999 V2000
  -21.9325   25.7897  -11.6382 C   0  0  0  0  0  0
  -22.9231   24.6788  -11.9001 C   0  0  0  0  0  0
  -23.7859   24.8340  -13.1389 C   0  0  0  0  0  0
  -22.2093   23.3617  -11.9952 C   0  0  0  0  0  0
  -22.8010   22.1911  -10.8812 C   0  0  0  0  0  0
  -22.0379   20.3808  -10.9045 C   0  0  0  0  0  0
  -20.9236   19.9373  -12.1334 C   0  0  0  0  0  0
  -20.3966   21.1792  -13.2076 C   0  0  0  0  0  0
  -21.0279   22.8309  -13.1504 C   0  0  0  0  0  0
  -20.9729   18.1943  -12.2881 S   0  0  0  0  0  0
  -20.6177   17.6312  -11.0089 O   0  0  0  0  0  0
  -22.1981   17.8334  -12.9682 O   0  0  0  0  0  0
  -19.6842   17.9591  -13.3659 N   0  0  0  0  0  0
  -19.5823   16.8971  -14.4445 C   0  0  0  0  0  0
  -18.3294   16.8055  -15.4123 C   0  0  0  0  0  0
  -18.3907   16.0281  -16.6583 N   0  0  0  0  0  0
  -17.2977   16.3942  -18.0913 C   0  0  0  0  0  0
  -16.8642   15.0374  -19.3669 C   0  0  0  0  0  0
  -16.7130   13.3517  -19.0305 N   0  0  0  0  0  0
  -17.4942   12.5089  -19.9644 C   0  0  0  0  0  0
  -17.3884   12.8057  -17.4525 C   0  0  0  0  0  0
  -18.5210   14.2095  -16.1294 C   0  0  0  0  0  0
  -17.7536   18.1871  -15.8472 C   0  0  0  0  0  0
  -16.3974   18.5029  -15.8473 C   0  0  0  0  0  0
  -16.0468   20.0332  -16.5295 S   0  0  0  0  0  0
  -17.6890   20.3039  -16.8937 C   0  0  0  0  0  0
  -18.4812   19.2496  -16.4984 C   0  0  0  0  0  0
  -18.8078   18.2876  -12.9640 H   0  0  0  0  0  0
  1  2  1  0  0  0
  2  3  1  0  0  0
  2  4  1  0  0  0
  4  5  2  0  0  0
  4  9  1  0  0  0
  5  6  1  0  0  0
  6  7  2  0  0  0
  7  8  1  0  0  0
  7 10  1  0  0  0
  8  9  2  0  0  0
 10 11  2  0  0  0
 10 12  2  0  0  0
 10 13  1  0  0  0
 13 14  1  0  0  0
 13 28  1  0  0  0
 14 15  1  0  0  0
 15 16  1  0  0  0
 15 23  1  0  0  0
 16 17  1  0  0  0
 16 22  1  0  0  0
 17 18  1  0  0  0
 18 19  1  0  0  0
 19 20  1  0  0  0
 19 21  1  0  0  0
 21 22  1  0  0  0
 23 24  2  0  0  0
 23 27  1  0  0  0
 24 25  1  0  0  0
 25 26  1  0  0  0
 26 27  2  0  0  0
M  END
>  <CHROM.0>
-60.73595304,-167.51674702,111.36254205,-60.81248624,168.45087971,-175.04770657
-167.08540688,-161.39942447

>  <CHROM.1>
123.62080341,-59.13995938,-146.11671000,178.60139202,-163.55311913,155.34607573
134.17639915,-19.48528623,18.74959289,-14.67897003,-2.31379889,-0.85747378
-3.10220177

>  <Name>
F2393-0259

>  <RI>
2.3751e+07

>  <Rbt.Current_Directory>
/home/adria/Escritorio/rDock_CMTR_LC/2pxcA_model/inputs_sah

>  <Rbt.Executable>
rbdock ($Id: //depot/dev/client3/rdock/2013.1/src/exe/rbdock.cxx#4 $)

>  <Rbt.Library>
libRbt.so (2013.1, Build901 2013/11/27)

>  <Rbt.Parameter_File>
/home/adria/Escritorio/rDock_2013.1_src/data/scripts/dock.prm

>  <Rbt.Receptor>
sah_rdock.prm

>  <SCORE>
-280.304

>  <SCORE.INTER>
-16.5447

>  <SCORE.INTER.CONST>
1

>  <SCORE.INTER.POLAR>
-0.836214

>  <SCORE.INTER.REPUL>
0

>  <SCORE.INTER.ROT>
7

>  <SCORE.INTER.VDW>
-26.1016

>  <SCORE.INTER.norm>
-0.612766

>  <SCORE.INTRA>
-263.042

>  <SCORE.INTRA.DIHEDRAL>
-0.691211

>  <SCORE.INTRA.DIHEDRAL.0>
6.08329

>  <SCORE.INTRA.POLAR>
0

>  <SCORE.INTRA.POLAR.0>
0

>  <SCORE.INTRA.REPUL>
0

>  <SCORE.INTRA.REPUL.0>
0

>  <SCORE.INTRA.VDW>
-262.696

>  <SCORE.INTRA.VDW.0>
260.094

>  <SCORE.INTRA.norm>
-9.74229

>  <SCORE.RESTR>
0

>  <SCORE.RESTR.CAVITY>
0

>  <SCORE.RESTR.norm>
0

>  <SCORE.SYSTEM>
-0.717835

>  <SCORE.SYSTEM.CONST>
0

>  <SCORE.SYSTEM.DIHEDRAL>
5.75069

>  <SCORE.SYSTEM.POLAR>
-3.93687

>  <SCORE.SYSTEM.VDW>
9.79217

>  <SCORE.SYSTEM.norm>
-0.0265865

>  <SCORE.heavy>
27

>  <SCORE.norm>
-10.3816

$$$$
F2393-0259
  rDOCK(R)          3D
libRbt.so/2013.1/901 2013/11/27
 28 30  0  0  0  0  0  0  0  0999 V2000
  -14.9466   16.4346  -17.6234 C   0  0  0  0  0  0
  -16.2404   16.6179  -18.3825 C   0  0  0  0  0  0
  -16.9002   15.3491  -18.8904 C   0  0  0  0  0  0
  -17.2382   17.3507  -17.5337 C   0  0  0  0  0  0
  -17.7770   16.4333  -16.1811 C   0  0  0  0  0  0
  -19.0332   17.2527  -14.9120 C   0  0  0  0  0  0
  -19.4441   18.9129  -15.0654 C   0  0  0  0  0  0
  -18.8486   19.7494  -16.4510 C   0  0  0  0  0  0
  -17.7712   18.9992  -17.6368 C   0  0  0  0  0  0
  -19.9766   19.4734  -13.4948 S   0  0  0  0  0  0
  -21.0393   18.6026  -13.0566 O   0  0  0  0  0  0
  -18.8064   19.7205  -12.6804 O   0  0  0  0  0  0
  -20.6417   20.9724  -13.9285 N   0  0  0  0  0  0
  -20.4442   22.2964  -13.2144 C   0  0  0  0  0  0
  -21.5566   22.9081  -12.2640 C   0  0  0  0  0  0
  -22.2650   22.0668  -11.2888 N   0  0  0  0  0  0
  -23.2280   22.7865   -9.8971 C   0  0  0  0  0  0
  -24.6678   21.8172   -9.0952 C   0  0  0  0  0  0
  -25.7043   20.7013   -9.9063 N   0  0  0  0  0  0
  -25.8237   19.4086   -9.1939 C   0  0  0  0  0  0
  -25.1351   20.1359  -11.5190 C   0  0  0  0  0  0
  -23.1181   20.7057  -12.3005 C   0  0  0  0  0  0
  -21.0849   24.1430  -11.4381 C   0  0  0  0  0  0
  -19.8530   24.2278  -10.7945 C   0  0  0  0  0  0
  -19.5408   25.7630  -10.1045 S   0  0  0  0  0  0
  -21.0182   26.3812  -10.6858 C   0  0  0  0  0  0
  -21.7297   25.4329  -11.3857 C   0  0  0  0  0  0
  -21.5196   20.8506  -14.4305 H   0  0  0  0  0  0
  1  2  1  0  0  0
  2  3  1  0  0  0
  2  4  1  0  0  0
  4  5  2  0  0  0
  4  9  1  0  0  0
  5  6  1  0  0  0
  6  7  2  0  0  0
  7  8  1  0  0  0
  7 10  1  0  0  0
  8  9  2  0  0  0
 10 11  2  0  0  0
 10 12  2  0  0  0
 10 13  1  0  0  0
 13 14  1  0  0  0
 13 28  1  0  0  0
 14 15  1  0  0  0
 15 16  1  0  0  0
 15 23  1  0  0  0
 16 17  1  0  0  0
 16 22  1  0  0  0
 17 18  1  0  0  0
 18 19  1  0  0  0
 19 20  1  0  0  0
 19 21  1  0  0  0
 21 22  1  0  0  0
 23 24  2  0  0  0
 23 27  1  0  0  0
 24 25  1  0  0  0
 25 26  1  0  0  0
 26 27  2  0  0  0
M  END
>  <CHROM.0>
-178.97743735,-73.52425049,110.63404463,64.75233074,168.51235373,60.41221373
-36.34128595,-166.60378374

>  <CHROM.1>
-67.77976954,-54.58768944,-135.11981075,-102.42758270,44.27621352,164.03182909
-43.16952351,-20.47782787,20.68581943,-13.13171900,-0.94471919,0.54242151
0.47444229

>  <Name>
F2393-0259

>  <RI>
2.3751e+07

>  <Rbt.Current_Directory>
/home/adria/Escritorio/rDock_CMTR_LC/2pxcA_model/inputs_sah

>  <Rbt.Executable>
rbdock ($Id: //depot/dev/client3/rdock/2013.1/src/exe/rbdock.cxx#4 $)

>  <Rbt.Library>
libRbt.so (2013.1, Build901 2013/11/27)

>  <Rbt.Parameter_File>
/home/adria/Escritorio/rDock_2013.1_src/data/scripts/dock.prm

>  <Rbt.Receptor>
sah_rdock.prm

>  <SCORE>
-277.356

>  <SCORE.INTER>
-13.7141

>  <SCORE.INTER.CONST>
1

>  <SCORE.INTER.POLAR>
-0.0141408

>  <SCORE.INTER.REPUL>
0

>  <SCORE.INTER.ROT>
7

>  <SCORE.INTER.VDW>
-26.066

>  <SCORE.INTER.norm>
-0.507929

>  <SCORE.INTRA>
-261.499

>  <SCORE.INTRA.DIHEDRAL>
-0.240505

>  <SCORE.INTRA.DIHEDRAL.0>
6.08329

>  <SCORE.INTRA.POLAR>
0

>  <SCORE.INTRA.POLAR.0>
0

>  <SCORE.INTRA.REPUL>
0

>  <SCORE.INTRA.REPUL.0>
0

>  <SCORE.INTRA.VDW>
-261.379

>  <SCORE.INTRA.VDW.0>
260.094

>  <SCORE.INTRA.norm>
-9.68516

>  <SCORE.RESTR>
0

>  <SCORE.RESTR.CAVITY>
0

>  <SCORE.RESTR.norm>
0

>  <SCORE.SYSTEM>
-2.14276

>  <SCORE.SYSTEM.CONST>
0

>  <SCORE.SYSTEM.DIHEDRAL>
6.47258

>  <SCORE.SYSTEM.POLAR>
-4.50636

>  <SCORE.SYSTEM.REPUL>
0.0394583

>  <SCORE.SYSTEM.VDW>
9.74527

>  <SCORE.SYSTEM.norm>
-0.0793616

>  <SCORE.heavy>
27

>  <SCORE.norm>
-10.2725

$$$$
F2393-0259
  rDOCK(R)          3D
libRbt.so/2013.1/901 2013/11/27
 28 30  0  0  0  0  0  0  0  0999 V2000
  -22.9225   23.9176   -9.9933 C   0  0  0  0  0  0
  -23.4585   22.5426   -9.6676 C   0  0  0  0  0  0
  -24.9686   22.4207   -9.5773 C   0  0  0  0  0  0
  -22.9733   21.5457  -10.6794 C   0  0  0  0  0  0
  -22.2475   20.1581   -9.9658 C   0  0  0  0  0  0
  -21.6147   18.7074  -11.1299 C   0  0  0  0  0  0
  -21.9418   18.7573  -12.8148 C   0  0  0  0  0  0
  -22.6802   20.1875  -13.4342 C   0  0  0  0  0  0
  -23.1917   21.5295  -12.4011 C   0  0  0  0  0  0
  -21.8802   17.1139  -13.4146 S   0  0  0  0  0  0
  -20.5573   16.6022  -13.1539 O   0  0  0  0  0  0
  -23.0692   16.4221  -12.9658 O   0  0  0  0  0  0
  -22.0365   17.4032  -15.0788 N   0  0  0  0  0  0
  -20.9241   17.4059  -16.1104 C   0  0  0  0  0  0
  -19.4141   17.6806  -15.7113 C   0  0  0  0  0  0
  -18.3226   17.4348  -16.6646 N   0  0  0  0  0  0
  -16.5832   17.9072  -16.2989 C   0  0  0  0  0  0
  -15.1232   17.0034  -17.1399 C   0  0  0  0  0  0
  -15.1088   15.3465  -17.6215 N   0  0  0  0  0  0
  -14.6629   15.1606  -19.0213 C   0  0  0  0  0  0
  -16.7159   14.5349  -17.6786 C   0  0  0  0  0  0
  -18.6056   15.6822  -17.3368 C   0  0  0  0  0  0
  -19.1443   19.1203  -15.1781 C   0  0  0  0  0  0
  -19.2193   20.2697  -15.9605 C   0  0  0  0  0  0
  -19.0353   21.7210  -15.0716 S   0  0  0  0  0  0
  -18.8999   20.8651  -13.6047 C   0  0  0  0  0  0
  -18.9901   19.5047  -13.7958 C   0  0  0  0  0  0
  -22.8399   17.9989  -15.2717 H   0  0  0  0  0  0
  1  2  1  0  0  0
  2  3  1  0  0  0
  2  4  1  0  0  0
  4  5  2  0  0  0
  4  9  1  0  0  0
  5  6  1  0  0  0
  6  7  2  0  0  0
  7  8  1  0  0  0
  7 10  1  0  0  0
  8  9  2  0  0  0
 10 11  2  0  0  0
 10 12  2  0  0  0
 10 13  1  0  0  0
 13 14  1  0  0  0
 13 28  1  0  0  0
 14 15  1  0  0  0
 15 16  1  0  0  0
 15 23  1  0  0  0
 16 17  1  0  0  0
 16 22  1  0  0  0
 17 18  1  0  0  0
 18 19  1  0  0  0
 19 20  1  0  0  0
 19 21  1  0  0  0
 21 22  1  0  0  0
 23 24  2  0  0  0
 23 27  1  0  0  0
 24 25  1  0  0  0
 25 26  1  0  0  0
 26 27  2  0  0  0
M  END
>  <CHROM.0>
-178.29134322,-72.90037899,-128.72001872,65.69004435,-30.87022407,-176.34804048
-38.65092446,-158.64801855

>  <CHROM.1>
128.55831367,-59.99858983,101.22774729,-23.92365242,168.46095050,173.44727794
-68.21210633,-20.17519462,18.77562396,-14.16820407,-2.42633549,-0.61659533
-2.83268745

>  <Name>
F2393-0259

>  <RI>
2.3751e+07

>  <Rbt.Current_Directory>
/home/adria/Escritorio/rDock_CMTR_LC/2pxcA_model/inputs_sah

>  <Rbt.Executable>
rbdock ($Id: //depot/dev/client3/rdock/2013.1/src/exe/rbdock.cxx#4 $)

>  <Rbt.Library>
libRbt.so (2013.1, Build901 2013/11/27)

>  <Rbt.Parameter_File>
/home/adria/Escritorio/rDock_2013.1_src/data/scripts/dock.prm

>  <Rbt.Receptor>
sah_rdock.prm

>  <SCORE>
-283.398

>  <SCORE.INTER>
-12.3113

>  <SCORE.INTER.CONST>
1

>  <SCORE.INTER.POLAR>
-0.824621

>  <SCORE.INTER.REPUL>
0.120667

>  <SCORE.INTER.ROT>
7

>  <SCORE.INTER.VDW>
-22.5109

>  <SCORE.INTER.norm>
-0.455973

>  <SCORE.INTRA>
-264.386

>  <SCORE.INTRA.DIHEDRAL>
0.373086

>  <SCORE.INTRA.DIHEDRAL.0>
6.08329

>  <SCORE.INTRA.POLAR>
0

>  <SCORE.INTRA.POLAR.0>
0

>  <SCORE.INTRA.REPUL>
0

>  <SCORE.INTRA.REPUL.0>
0

>  <SCORE.INTRA.VDW>
-264.573

>  <SCORE.INTRA.VDW.0>
260.094

>  <SCORE.INTRA.norm>
-9.79209

>  <SCORE.RESTR>
0

>  <SCORE.RESTR.CAVITY>
0

>  <SCORE.RESTR.norm>
0

>  <SCORE.SYSTEM>
-6.70016

>  <SCORE.SYSTEM.CONST>
0

>  <SCORE.SYSTEM.DIHEDRAL>
9.49693

>  <SCORE.SYSTEM.POLAR>
-4.47627

>  <SCORE.SYSTEM.REPUL>
0.0383571

>  <SCORE.SYSTEM.VDW>
3.57889

>  <SCORE.SYSTEM.norm>
-0.248154

>  <SCORE.heavy>
27

>  <SCORE.norm>
-10.4962

$$$$
F2393-0259
  rDOCK(R)          3D
libRbt.so/2013.1/901 2013/11/27
 28 30  0  0  0  0  0  0  0  0999 V2000
  -24.7392   20.3501   -9.2719 C   0  0  0  0  0  0
  -23.9518   19.1710   -9.7950 C   0  0  0  0  0  0
  -24.7534   17.9210  -10.1082 C   0  0  0  0  0  0
  -23.1992   19.5608  -11.0339 C   0  0  0  0  0  0
  -21.6993   20.3344  -10.6974 C   0  0  0  0  0  0
  -20.5375   20.8548  -12.1939 C   0  0  0  0  0  0
  -20.9424   20.3857  -13.7953 C   0  0  0  0  0  0
  -22.4637   19.6080  -14.0299 C   0  0  0  0  0  0
  -23.5486   19.1964  -12.6944 C   0  0  0  0  0  0
  -19.4657   20.3838  -14.7353 S   0  0  0  0  0  0
  -19.1118   21.7570  -14.9973 O   0  0  0  0  0  0
  -18.5375   19.4594  -14.1205 O   0  0  0  0  0  0
  -20.0333   19.6818  -16.1715 N   0  0  0  0  0  0
  -19.2320   18.8533  -17.1581 C   0  0  0  0  0  0
  -18.1359   17.8120  -16.6795 C   0  0  0  0  0  0
  -18.0842   16.4552  -17.2425 N   0  0  0  0  0  0
  -17.1615   16.0745  -18.7872 C   0  0  0  0  0  0
  -16.5035   14.3119  -19.1283 C   0  0  0  0  0  0
  -15.9773   13.1855  -17.9318 N   0  0  0  0  0  0
  -16.5995   11.8509  -18.0885 C   0  0  0  0  0  0
  -16.4472   13.5696  -16.2359 C   0  0  0  0  0  0
  -17.7952   15.2929  -15.7696 C   0  0  0  0  0  0
  -16.6699   18.3306  -16.7864 C   0  0  0  0  0  0
  -16.3080   19.6724  -16.6996 C   0  0  0  0  0  0
  -14.6156   19.9296  -16.6862 S   0  0  0  0  0  0
  -14.3093   18.2546  -16.7447 C   0  0  0  0  0  0
  -15.4746   17.5222  -16.7771 C   0  0  0  0  0  0
  -20.8190   20.2085  -16.5494 H   0  0  0  0  0  0
  1  2  1  0  0  0
  2  3  1  0  0  0
  2  4  1  0  0  0
  4  5  2  0  0  0
  4  9  1  0  0  0
  5  6  1  0  0  0
  6  7  2  0  0  0
  7  8  1  0  0  0
  7 10  1  0  0  0
  8  9  2  0  0  0
 10 11  2  0  0  0
 10 12  2  0  0  0
 10 13  1  0  0  0
 13 14  1  0  0  0
 13 28  1  0  0  0
 14 15  1  0  0  0
 15 16  1  0  0  0
 15 23  1  0  0  0
 16 17  1  0  0  0
 16 22  1  0  0  0
 17 18  1  0  0  0
 18 19  1  0  0  0
 19 20  1  0  0  0
 19 21  1  0  0  0
 21 22  1  0  0  0
 23 24  2  0  0  0
 23 27  1  0  0  0
 24 25  1  0  0  0
 25 26  1  0  0  0
 26 27  2  0  0  0
M  END
>  <CHROM.0>
-176.91534397,-72.16844644,-43.34692886,-61.82427517,-30.00254457,-58.47401321
-156.99092091,-163.32873795

>  <CHROM.1>
83.39121725,-74.65707181,-151.36104691,38.59323446,133.36953237,86.53830990
28.27589175,-18.93324851,18.29531106,-15.05971586,2.60073559,0.64390121,0.22940996

>  <Name>
F2393-0259

>  <RI>
2.3751e+07

>  <Rbt.Current_Directory>
/home/adria/Escritorio/rDock_CMTR_LC/2pxcA_model/inputs_sah

>  <Rbt.Executable>
rbdock ($Id: //depot/dev/client3/rdock/2013.1/src/exe/rbdock.cxx#4 $)

>  <Rbt.Library>
libRbt.so (2013.1, Build901 2013/11/27)

>  <Rbt.Parameter_File>
/home/adria/Escritorio/rDock_2013.1_src/data/scripts/dock.prm

>  <Rbt.Receptor>
sah_rdock.prm

>  <SCORE>
-280.498

>  <SCORE.INTER>
-13.02

>  <SCORE.INTER.CONST>
1

>  <SCORE.INTER.POLAR>
-0.881573

>  <SCORE.INTER.REPUL>
0

>  <SCORE.INTER.ROT>
7

>  <SCORE.INTER.VDW>
-22.4226

>  <SCORE.INTER.norm>
-0.482222

>  <SCORE.INTRA>
-260.388

>  <SCORE.INTRA.DIHEDRAL>
3.97731

>  <SCORE.INTRA.DIHEDRAL.0>
6.08329

>  <SCORE.INTRA.POLAR>
0

>  <SCORE.INTRA.POLAR.0>
0

>  <SCORE.INTRA.REPUL>
0

>  <SCORE.INTRA.REPUL.0>
0

>  <SCORE.INTRA.VDW>
-262.377

>  <SCORE.INTRA.VDW.0>
260.094

>  <SCORE.INTRA.norm>
-9.644

>  <SCORE.RESTR>
0

>  <SCORE.RESTR.CAVITY>
0

>  <SCORE.RESTR.norm>
0

>  <SCORE.SYSTEM>
-7.08952

>  <SCORE.SYSTEM.CONST>
0

>  <SCORE.SYSTEM.DIHEDRAL>
6.56773

>  <SCORE.SYSTEM.POLAR>
-4.03159

>  <SCORE.SYSTEM.REPUL>
0.0370168

>  <SCORE.SYSTEM.VDW>
3.14892

>  <SCORE.SYSTEM.norm>
-0.262575

>  <SCORE.heavy>
27

>  <SCORE.norm>
-10.3888

$$$$
F2393-0259
  rDOCK(R)          3D
libRbt.so/2013.1/901 2013/11/27
 28 30  0  0  0  0  0  0  0  0999 V2000
  -22.1816   25.8248  -11.8372 C   0  0  0  0  0  0
  -23.1022   24.6739  -12.1716 C   0  0  0  0  0  0
  -23.8667   24.7903  -13.4775 C   0  0  0  0  0  0
  -22.3309   23.3865  -12.1999 C   0  0  0  0  0  0
  -22.9134   22.2255  -11.0712 C   0  0  0  0  0  0
  -22.0748   20.4498  -11.0105 C   0  0  0  0  0  0
  -20.8987   20.0179  -12.1847 C   0  0  0  0  0  0
  -20.3853   21.2486  -13.2783 C   0  0  0  0  0  0
  -21.0868   22.8726  -13.2955 C   0  0  0  0  0  0
  -20.8692   18.2705  -12.2861 S   0  0  0  0  0  0
  -19.4919   17.8628  -12.4141 O   0  0  0  0  0  0
  -21.7297   17.7412  -11.2501 O   0  0  0  0  0  0
  -21.6457   18.0503  -13.7781 N   0  0  0  0  0  0
  -21.1190   17.2774  -14.9727 C   0  0  0  0  0  0
  -19.5753   17.2466  -15.3344 C   0  0  0  0  0  0
  -19.0429   16.2723  -16.2976 N   0  0  0  0  0  0
  -17.9379   16.7715  -17.6804 C   0  0  0  0  0  0
  -16.7176   15.5236  -18.4611 C   0  0  0  0  0  0
  -15.9399   14.2247  -17.6331 N   0  0  0  0  0  0
  -16.0792   12.9304  -18.3389 C   0  0  0  0  0  0
  -16.6303   13.7976  -16.0252 C   0  0  0  0  0  0
  -18.4970   14.7721  -15.2704 C   0  0  0  0  0  0
  -19.0022   18.6151  -15.8125 C   0  0  0  0  0  0
  -17.7918   19.1494  -15.3783 C   0  0  0  0  0  0
  -17.3398   20.5840  -16.1954 S   0  0  0  0  0  0
  -18.7202   20.5121  -17.1915 C   0  0  0  0  0  0
  -19.5050   19.4192  -16.9001 C   0  0  0  0  0  0
  -22.2797   18.8223  -13.9770 H   0  0  0  0  0  0
  1  2  1  0  0  0
  2  3  1  0  0  0
  2  4  1  0  0  0
  4  5  2  0  0  0
  4  9  1  0  0  0
  5  6  1  0  0  0
  6  7  2  0  0  0
  7  8  1  0  0  0
  7 10  1  0  0  0
  8  9  2  0  0  0
 10 11  2  0  0  0
 10 12  2  0  0  0
 10 13  1  0  0  0
 13 14  1  0  0  0
 13 28  1  0  0  0
 14 15  1  0  0  0
 15 16  1  0  0  0
 15 23  1  0  0  0
 16 17  1  0  0  0
 16 22  1  0  0  0
 17 18  1  0  0  0
 18 19  1  0  0  0
 19 20  1  0  0  0
 19 21  1  0  0  0
 21 22  1  0  0  0
 23 24  2  0  0  0
 23 27  1  0  0  0
 24 25  1  0  0  0
 25 26  1  0  0  0
 26 27  2  0  0  0
M  END
>  <CHROM.0>
-61.87257864,63.65415662,-46.23739885,64.77715771,168.38621581,-61.09231056
-46.38432611,-162.32265844

>  <CHROM.1>
120.61432418,-139.84782006,125.38155813,-34.72835508,166.37815203,131.13378788
135.36422869,-19.79264261,19.02799424,-14.48696661,-2.49680691,-0.91529286
2.88638505

>  <Name>
F2393-0259

>  <RI>
2.3751e+07

>  <Rbt.Current_Directory>
/home/adria/Escritorio/rDock_CMTR_LC/2pxcA_model/inputs_sah

>  <Rbt.Executable>
rbdock ($Id: //depot/dev/client3/rdock/2013.1/src/exe/rbdock.cxx#4 $)

>  <Rbt.Library>
libRbt.so (2013.1, Build901 2013/11/27)

>  <Rbt.Parameter_File>
/home/adria/Escritorio/rDock_2013.1_src/data/scripts/dock.prm

>  <Rbt.Receptor>
sah_rdock.prm

>  <SCORE>
-278.387

>  <SCORE.INTER>
-14.9883

>  <SCORE.INTER.CONST>
1

>  <SCORE.INTER.POLAR>
-1.03505

>  <SCORE.INTER.REPUL>
0.0141542

>  <SCORE.INTER.ROT>
7

>  <SCORE.INTER.VDW>
-23.9399

>  <SCORE.INTER.norm>
-0.555123

>  <SCORE.INTRA>
-261.513

>  <SCORE.INTRA.DIHEDRAL>
2.77623

>  <SCORE.INTRA.DIHEDRAL.0>
6.08329

>  <SCORE.INTRA.POLAR>
0

>  <SCORE.INTRA.POLAR.0>
0

>  <SCORE.INTRA.REPUL>
0

>  <SCORE.INTRA.REPUL.0>
0

>  <SCORE.INTRA.VDW>
-262.901

>  <SCORE.INTRA.VDW.0>
260.094

>  <SCORE.INTRA.norm>
-9.68566

>  <SCORE.RESTR>
0

>  <SCORE.RESTR.CAVITY>
0

>  <SCORE.RESTR.norm>
0

>  <SCORE.SYSTEM>
-1.88536

>  <SCORE.SYSTEM.CONST>
0

>  <SCORE.SYSTEM.DIHEDRAL>
2.17212

>  <SCORE.SYSTEM.POLAR>
-3.31912

>  <SCORE.SYSTEM.VDW>
8.31359

>  <SCORE.SYSTEM.norm>
-0.0698282

>  <SCORE.heavy>
27

>  <SCORE.norm>
-10.3106

$$$$
F2393-0259
  rDOCK(R)          3D
libRbt.so/2013.1/901 2013/11/27
 28 30  0  0  0  0  0  0  0  0999 V2000
  -15.1633   16.0604  -18.8486 C   0  0  0  0  0  0
  -15.0306   16.9299  -17.6197 C   0  0  0  0  0  0
  -14.2737   18.2324  -17.8039 C   0  0  0  0  0  0
  -16.3881   17.2573  -17.0691 C   0  0  0  0  0  0
  -16.9909   16.0527  -15.9982 C   0  0  0  0  0  0
  -18.7253   16.3381  -15.1204 C   0  0  0  0  0  0
  -19.5343   17.8430  -15.2921 C   0  0  0  0  0  0
  -18.8472   18.9894  -16.3821 C   0  0  0  0  0  0
  -17.3196   18.7129  -17.2304 C   0  0  0  0  0  0
  -20.6122   18.0232  -13.9247 S   0  0  0  0  0  0
  -21.8095   18.6757  -14.3943 O   0  0  0  0  0  0
  -20.6571   16.7640  -13.2132 O   0  0  0  0  0  0
  -19.7202   19.1233  -12.9912 N   0  0  0  0  0  0
  -19.9394   20.6213  -12.8935 C   0  0  0  0  0  0
  -21.3875   21.2454  -12.7250 C   0  0  0  0  0  0
  -22.3990   20.5936  -11.8809 N   0  0  0  0  0  0
  -22.1001   20.2328  -10.1025 C   0  0  0  0  0  0
  -23.5577   20.0672   -8.8761 C   0  0  0  0  0  0
  -25.0587   20.9122   -8.9775 N   0  0  0  0  0  0
  -26.2305   20.0140   -8.8638 C   0  0  0  0  0  0
  -25.4047   21.7046  -10.5576 C   0  0  0  0  0  0
  -24.0504   21.4231  -12.3156 C   0  0  0  0  0  0
  -21.3937   22.7322  -12.2568 C   0  0  0  0  0  0
  -20.6390   23.2189  -11.1926 C   0  0  0  0  0  0
  -20.7195   24.9193  -11.0123 S   0  0  0  0  0  0
  -21.7243   25.0679  -12.3802 C   0  0  0  0  0  0
  -21.9913   23.8453  -12.9541 C   0  0  0  0  0  0
  -18.7686   18.7904  -12.8451 H   0  0  0  0  0  0
  1  2  1  0  0  0
  2  3  1  0  0  0
  2  4  1  0  0  0
  4  5  2  0  0  0
  4  9  1  0  0  0
  5  6  1  0  0  0
  6  7  2  0  0  0
  7  8  1  0  0  0
  7 10  1  0  0  0
  8  9  2  0  0  0
 10 11  2  0  0  0
 10 12  2  0  0  0
 10 13  1  0  0  0
 13 14  1  0  0  0
 13 28  1  0  0  0
 14 15  1  0  0  0
 15 16  1  0  0  0
 15 23  1  0  0  0
 16 17  1  0  0  0
 16 22  1  0  0  0
 17 18  1  0  0  0
 18 19  1  0  0  0
 19 20  1  0  0  0
 19 21  1  0  0  0
 21 22  1  0  0  0
 23 24  2  0  0  0
 23 27  1  0  0  0
 24 25  1  0  0  0
 25 26  1  0  0  0
 26 27  2  0  0  0
M  END
>  <CHROM.0>
39.37270190,-71.58509436,-25.23576840,64.71875086,-30.30903265,-175.67832730
-156.56389358,-37.56728979

>  <CHROM.1>
85.84486864,-143.32767549,100.03266846,44.74515083,38.11989274,56.97982901
-47.84745106,-20.48972766,19.94932884,-13.32155092,-0.63391918,0.65695263
0.22266809

>  <Name>
F2393-0259

>  <RI>
2.3751e+07

>  <Rbt.Current_Directory>
/home/adria/Escritorio/rDock_CMTR_LC/2pxcA_model/inputs_sah

>  <Rbt.Executable>
rbdock ($Id: //depot/dev/client3/rdock/2013.1/src/exe/rbdock.cxx#4 $)

>  <Rbt.Library>
libRbt.so (2013.1, Build901 2013/11/27)

>  <Rbt.Parameter_File>
/home/adria/Escritorio/rDock_2013.1_src/data/scripts/dock.prm

>  <Rbt.Receptor>
sah_rdock.prm

>  <SCORE>
-277.304

>  <SCORE.INTER>
-13.9453

>  <SCORE.INTER.CONST>
1

>  <SCORE.INTER.POLAR>
-0.81083

>  <SCORE.INTER.REPUL>
0

>  <SCORE.INTER.ROT>
7

>  <SCORE.INTER.VDW>
-23.5884

>  <SCORE.INTER.norm>
-0.516491

>  <SCORE.INTRA>
-262.708

>  <SCORE.INTRA.DIHEDRAL>
-0.229962

>  <SCORE.INTRA.DIHEDRAL.0>
6.08329

>  <SCORE.INTRA.POLAR>
0

>  <SCORE.INTRA.POLAR.0>
0

>  <SCORE.INTRA.REPUL>
0

>  <SCORE.INTRA.REPUL.0>
0

>  <SCORE.INTRA.VDW>
-262.593

>  <SCORE.INTRA.VDW.0>
260.094

>  <SCORE.INTRA.norm>
-9.72991

>  <SCORE.RESTR>
0.0341345

>  <SCORE.RESTR.CAVITY>
0.0341345

>  <SCORE.RESTR.norm>
0.00126424

>  <SCORE.SYSTEM>
-0.684891

>  <SCORE.SYSTEM.CONST>
0

>  <SCORE.SYSTEM.DIHEDRAL>
11.4628

>  <SCORE.SYSTEM.POLAR>
-3.81846

>  <SCORE.SYSTEM.REPUL>
0.204377

>  <SCORE.SYSTEM.VDW>
5.54459

>  <SCORE.SYSTEM.norm>
-0.0253663

>  <SCORE.heavy>
27

>  <SCORE.norm>
-10.2705

$$$$
