F0630-1662
  rDOCK(R)          3D
libRbt.so/2013.1/901 2013/11/27
 25 29  0  0  0  0  0  0  0  0999 V2000
  -13.7856   16.3788  -16.6994 O   0  0  0  0  0  0
  -14.9629   16.6627  -16.9459 C   0  0  0  0  0  0
  -15.4301   18.0461  -16.9812 N   0  0  0  0  0  0
  -14.3605   18.9366  -16.6293 C   0  0  0  0  0  0
  -14.8714   20.3369  -16.8418 C   0  0  0  0  0  0
  -16.2916   20.2113  -17.1735 N   0  0  0  0  0  0
  -16.5353   18.9428  -17.2853 C   0  0  0  0  0  0
  -18.1967   18.5394  -17.6021 S   0  0  0  0  0  0
  -19.2472   19.8798  -16.9050 C   0  0  0  0  0  0
  -19.8027   19.5735  -15.5595 C   0  0  0  0  0  0
  -19.8784   18.0621  -14.8890 C   0  0  0  0  0  0
  -20.0508   17.6295  -13.3328 N   0  0  0  0  0  0
  -20.1023   18.6240  -12.2252 C   0  0  0  0  0  0
  -19.9530   20.2508  -12.5308 C   0  0  0  0  0  0
  -19.8095   20.8716  -14.4017 C   0  0  0  0  0  0
  -15.8438   15.5991  -17.5170 C   0  0  0  0  0  0
  -16.5167   15.6539  -19.1070 C   0  0  0  0  0  0
  -17.6433   14.1592  -19.4930 C   0  0  0  0  0  0
  -16.7614   12.9637  -19.6923 C   0  0  0  0  0  0
  -16.0503   12.6859  -18.3873 C   0  0  0  0  0  0
  -17.3526   12.1890  -17.1542 C   0  0  0  0  0  0
  -18.4309   13.7274  -16.5161 C   0  0  0  0  0  0
  -18.9846   13.5515  -18.3266 C   0  0  0  0  0  0
  -17.2313   15.5671  -16.0044 C   0  0  0  0  0  0
  -14.9663   14.1306  -18.0885 C   0  0  0  0  0  0
  1  2  2  0  0  0
  2  3  1  0  0  0
  3  4  1  0  0  0
  3  7  1  0  0  0
  4  5  1  0  0  0
  5  6  1  0  0  0
  6  7  2  0  0  0
  7  8  1  0  0  0
  8  9  1  0  0  0
  9 10  1  0  0  0
 10 11  2  0  0  0
 10 15  1  0  0  0
 11 12  1  0  0  0
 12 13  2  0  0  0
 13 14  1  0  0  0
 14 15  2  0  0  0
 16  2  1  0  0  0
 16 17  1  0  0  0
 16 24  1  0  0  0
 16 25  1  0  0  0
 17 18  1  0  0  0
 18 19  1  0  0  0
 18 23  1  0  0  0
 19 20  1  0  0  0
 20 21  1  0  0  0
 20 25  1  0  0  0
 21 22  1  0  0  0
 22 23  1  0  0  0
 22 24  1  0  0  0
M  END
>  <CHROM.0>
-60.66053497,-165.49782807,-165.46782061,64.49133860,168.57196098,-55.48978782
-36.82456322,-159.33299212

>  <CHROM.1>
145.16154521,-97.59656028,-16.92353873,-114.00290470,-17.32917198,16.98828832
-16.71921402,-1.15124315,0.53382684,0.33393274

>  <Name>
F0630-1662

>  <RI>
2.24157e+07

>  <Rbt.Current_Directory>
/home/adria/Escritorio/rDock_CMTR_LC/2pxcA_model/inputs_sah

>  <Rbt.Executable>
rbdock ($Id: //depot/dev/client3/rdock/2013.1/src/exe/rbdock.cxx#4 $)

>  <Rbt.Library>
libRbt.so (2013.1, Build901 2013/11/27)

>  <Rbt.Parameter_File>
/home/adria/Escritorio/rDock_2013.1_src/data/scripts/dock.prm

>  <Rbt.Receptor>
sah_rdock.prm

>  <SCORE>
-291.28

>  <SCORE.INTER>
-19.0691

>  <SCORE.INTER.CONST>
1

>  <SCORE.INTER.POLAR>
-1.65847

>  <SCORE.INTER.REPUL>
0

>  <SCORE.INTER.ROT>
4

>  <SCORE.INTER.VDW>
-22.8303

>  <SCORE.INTER.norm>
-0.762764

>  <SCORE.INTRA>
-270.972

>  <SCORE.INTRA.DIHEDRAL>
-1.78153

>  <SCORE.INTRA.DIHEDRAL.0>
5.11813

>  <SCORE.INTRA.POLAR>
0

>  <SCORE.INTRA.POLAR.0>
0

>  <SCORE.INTRA.REPUL>
0

>  <SCORE.INTRA.REPUL.0>
0

>  <SCORE.INTRA.VDW>
-270.081

>  <SCORE.INTRA.VDW.0>
267.927

>  <SCORE.INTRA.norm>
-10.8389

>  <SCORE.RESTR>
0

>  <SCORE.RESTR.CAVITY>
0

>  <SCORE.RESTR.norm>
0

>  <SCORE.SYSTEM>
-1.2398

>  <SCORE.SYSTEM.CONST>
0

>  <SCORE.SYSTEM.DIHEDRAL>
4.03085

>  <SCORE.SYSTEM.POLAR>
-3.58045

>  <SCORE.SYSTEM.VDW>
8.91831

>  <SCORE.SYSTEM.norm>
-0.049592

>  <SCORE.heavy>
25

>  <SCORE.norm>
-11.6512

$$$$
F0630-1662
  rDOCK(R)          3D
libRbt.so/2013.1/901 2013/11/27
 25 29  0  0  0  0  0  0  0  0999 V2000
  -14.5681   18.4016  -17.0618 O   0  0  0  0  0  0
  -15.6303   17.8229  -16.8084 C   0  0  0  0  0  0
  -16.8036   18.5446  -16.3229 N   0  0  0  0  0  0
  -16.4875   19.9330  -16.1406 C   0  0  0  0  0  0
  -17.7759   20.6318  -15.7960 C   0  0  0  0  0  0
  -18.7851   19.5828  -15.6423 N   0  0  0  0  0  0
  -18.2178   18.4693  -15.9879 C   0  0  0  0  0  0
  -19.2109   17.0532  -15.8101 S   0  0  0  0  0  0
  -20.9709   17.5783  -15.9240 C   0  0  0  0  0  0
  -21.5615   17.9965  -14.6245 C   0  0  0  0  0  0
  -23.0579   17.5479  -14.0774 C   0  0  0  0  0  0
  -23.6529   17.5633  -12.5660 N   0  0  0  0  0  0
  -22.8337   17.9562  -11.3858 C   0  0  0  0  0  0
  -21.2349   18.3761  -11.5579 C   0  0  0  0  0  0
  -20.4471   18.4521  -13.3690 C   0  0  0  0  0  0
  -15.8084   16.4222  -17.2980 C   0  0  0  0  0  0
  -14.5267   15.4484  -17.9248 C   0  0  0  0  0  0
  -15.1154   13.7286  -18.5148 C   0  0  0  0  0  0
  -15.4116   12.9062  -17.2971 C   0  0  0  0  0  0
  -16.5563   13.5620  -16.5585 C   0  0  0  0  0  0
  -18.0519   13.4434  -17.6596 C   0  0  0  0  0  0
  -17.9876   14.7168  -19.1797 C   0  0  0  0  0  0
  -16.6155   13.4751  -19.6167 C   0  0  0  0  0  0
  -17.3224   16.8007  -18.6317 C   0  0  0  0  0  0
  -15.9247   15.1841  -15.9916 C   0  0  0  0  0  0
  1  2  2  0  0  0
  2  3  1  0  0  0
  3  4  1  0  0  0
  3  7  1  0  0  0
  4  5  1  0  0  0
  5  6  1  0  0  0
  6  7  2  0  0  0
  7  8  1  0  0  0
  8  9  1  0  0  0
  9 10  1  0  0  0
 10 11  2  0  0  0
 10 15  1  0  0  0
 11 12  1  0  0  0
 12 13  2  0  0  0
 13 14  1  0  0  0
 14 15  2  0  0  0
 16  2  1  0  0  0
 16 17  1  0  0  0
 16 24  1  0  0  0
 16 25  1  0  0  0
 17 18  1  0  0  0
 18 19  1  0  0  0
 18 23  1  0  0  0
 19 20  1  0  0  0
 20 21  1  0  0  0
 20 25  1  0  0  0
 21 22  1  0  0  0
 22 23  1  0  0  0
 22 24  1  0  0  0
M  END
>  <CHROM.0>
-58.89539428,-170.87042820,-9.11544713,-143.39919542,-31.29604099,-58.78105948
-157.06188725,-162.81657545

>  <CHROM.1>
-161.99504614,-87.51875742,-135.49883303,12.40242134,-18.19452667,16.87379348
-16.08217120,-0.59568647,0.51403108,0.32206960

>  <Name>
F0630-1662

>  <RI>
2.24157e+07

>  <Rbt.Current_Directory>
/home/adria/Escritorio/rDock_CMTR_LC/2pxcA_model/inputs_sah

>  <Rbt.Executable>
rbdock ($Id: //depot/dev/client3/rdock/2013.1/src/exe/rbdock.cxx#4 $)

>  <Rbt.Library>
libRbt.so (2013.1, Build901 2013/11/27)

>  <Rbt.Parameter_File>
/home/adria/Escritorio/rDock_2013.1_src/data/scripts/dock.prm

>  <Rbt.Receptor>
sah_rdock.prm

>  <SCORE>
-283.862

>  <SCORE.INTER>
-9.57525

>  <SCORE.INTER.CONST>
1

>  <SCORE.INTER.POLAR>
0

>  <SCORE.INTER.REPUL>
0

>  <SCORE.INTER.ROT>
4

>  <SCORE.INTER.VDW>
-18.9753

>  <SCORE.INTER.norm>
-0.38301

>  <SCORE.INTRA>
-271.386

>  <SCORE.INTRA.DIHEDRAL>
-2.92995

>  <SCORE.INTRA.DIHEDRAL.0>
5.11813

>  <SCORE.INTRA.POLAR>
0

>  <SCORE.INTRA.POLAR.0>
0

>  <SCORE.INTRA.REPUL>
0

>  <SCORE.INTRA.REPUL.0>
0

>  <SCORE.INTRA.VDW>
-269.921

>  <SCORE.INTRA.VDW.0>
267.927

>  <SCORE.INTRA.norm>
-10.8554

>  <SCORE.RESTR>
0

>  <SCORE.RESTR.CAVITY>
0

>  <SCORE.RESTR.norm>
0

>  <SCORE.SYSTEM>
-2.9012

>  <SCORE.SYSTEM.CONST>
0

>  <SCORE.SYSTEM.DIHEDRAL>
13.5561

>  <SCORE.SYSTEM.POLAR>
-4.33755

>  <SCORE.SYSTEM.VDW>
5.06841

>  <SCORE.SYSTEM.norm>
-0.116048

>  <SCORE.heavy>
25

>  <SCORE.norm>
-11.3545

$$$$
F0630-1662
  rDOCK(R)          3D
libRbt.so/2013.1/901 2013/11/27
 25 29  0  0  0  0  0  0  0  0999 V2000
  -16.7205   19.8161  -17.5528 O   0  0  0  0  0  0
  -17.3173   19.0679  -16.7708 C   0  0  0  0  0  0
  -18.2655   19.5818  -15.7859 N   0  0  0  0  0  0
  -18.3109   21.0154  -15.8469 C   0  0  0  0  0  0
  -19.4156   21.4563  -14.9235 C   0  0  0  0  0  0
  -19.8821   20.2518  -14.2350 N   0  0  0  0  0  0
  -19.2591   19.2512  -14.7751 C   0  0  0  0  0  0
  -19.5962   17.7031  -14.0590 S   0  0  0  0  0  0
  -21.3812   17.6623  -13.6137 C   0  0  0  0  0  0
  -22.2938   17.9612  -14.7496 C   0  0  0  0  0  0
  -23.6554   18.8969  -14.6484 C   0  0  0  0  0  0
  -24.4875   19.6416  -15.8280 N   0  0  0  0  0  0
  -24.0520   19.6210  -17.2522 C   0  0  0  0  0  0
  -22.6531   18.8470  -17.7061 C   0  0  0  0  0  0
  -21.6148   17.8557  -16.3476 C   0  0  0  0  0  0
  -17.3007   17.5987  -17.0438 C   0  0  0  0  0  0
  -18.6912   16.5801  -16.9302 C   0  0  0  0  0  0
  -18.3029   14.7437  -17.2893 C   0  0  0  0  0  0
  -18.0766   14.6061  -18.7647 C   0  0  0  0  0  0
  -16.8549   15.4197  -19.1270 C   0  0  0  0  0  0
  -15.4003   14.6188  -18.2868 C   0  0  0  0  0  0
  -15.3524   14.9720  -16.3350 C   0  0  0  0  0  0
  -16.8585   13.8254  -16.5152 C   0  0  0  0  0  0
  -15.7780   17.1097  -15.7567 C   0  0  0  0  0  0
  -17.2968   17.1649  -18.7943 C   0  0  0  0  0  0
  1  2  2  0  0  0
  2  3  1  0  0  0
  3  4  1  0  0  0
  3  7  1  0  0  0
  4  5  1  0  0  0
  5  6  1  0  0  0
  6  7  2  0  0  0
  7  8  1  0  0  0
  8  9  1  0  0  0
  9 10  1  0  0  0
 10 11  2  0  0  0
 10 15  1  0  0  0
 11 12  1  0  0  0
 12 13  2  0  0  0
 13 14  1  0  0  0
 14 15  2  0  0  0
 16  2  1  0  0  0
 16 17  1  0  0  0
 16 24  1  0  0  0
 16 25  1  0  0  0
 17 18  1  0  0  0
 18 19  1  0  0  0
 18 23  1  0  0  0
 19 20  1  0  0  0
 20 21  1  0  0  0
 20 25  1  0  0  0
 21 22  1  0  0  0
 22 23  1  0  0  0
 22 24  1  0  0  0
M  END
>  <CHROM.0>
-60.28604608,66.37454244,110.99060382,64.22361548,26.05920897,-56.29266333
-156.02194100,-160.58408662

>  <CHROM.1>
-149.74835068,54.96392306,-139.26552024,-135.66851528,-19.14003225,17.81336072
-16.24766572,-0.64911455,0.07632883,0.43217219

>  <Name>
F0630-1662

>  <RI>
2.24157e+07

>  <Rbt.Current_Directory>
/home/adria/Escritorio/rDock_CMTR_LC/2pxcA_model/inputs_sah

>  <Rbt.Executable>
rbdock ($Id: //depot/dev/client3/rdock/2013.1/src/exe/rbdock.cxx#4 $)

>  <Rbt.Library>
libRbt.so (2013.1, Build901 2013/11/27)

>  <Rbt.Parameter_File>
/home/adria/Escritorio/rDock_2013.1_src/data/scripts/dock.prm

>  <Rbt.Receptor>
sah_rdock.prm

>  <SCORE>
-277.482

>  <SCORE.INTER>
-11.3308

>  <SCORE.INTER.CONST>
1

>  <SCORE.INTER.POLAR>
-0.848528

>  <SCORE.INTER.REPUL>
0

>  <SCORE.INTER.ROT>
4

>  <SCORE.INTER.VDW>
-17.8458

>  <SCORE.INTER.norm>
-0.453232

>  <SCORE.INTRA>
-270.868

>  <SCORE.INTRA.DIHEDRAL>
-1.53372

>  <SCORE.INTRA.DIHEDRAL.0>
5.11813

>  <SCORE.INTRA.POLAR>
0

>  <SCORE.INTRA.POLAR.0>
0

>  <SCORE.INTRA.REPUL>
0

>  <SCORE.INTRA.REPUL.0>
0

>  <SCORE.INTRA.VDW>
-270.101

>  <SCORE.INTRA.VDW.0>
267.927

>  <SCORE.INTRA.norm>
-10.8347

>  <SCORE.RESTR>
0

>  <SCORE.RESTR.CAVITY>
0

>  <SCORE.RESTR.norm>
0

>  <SCORE.SYSTEM>
4.71684

>  <SCORE.SYSTEM.CONST>
0

>  <SCORE.SYSTEM.DIHEDRAL>
9.83402

>  <SCORE.SYSTEM.POLAR>
-4.1493

>  <SCORE.SYSTEM.VDW>
13.9074

>  <SCORE.SYSTEM.norm>
0.188674

>  <SCORE.heavy>
25

>  <SCORE.norm>
-11.0993

$$$$
F0630-1662
  rDOCK(R)          3D
libRbt.so/2013.1/901 2013/11/27
 25 29  0  0  0  0  0  0  0  0999 V2000
  -21.2353   17.1000  -12.9118 O   0  0  0  0  0  0
  -20.9445   18.2595  -13.2253 C   0  0  0  0  0  0
  -21.4282   19.4076  -12.4629 N   0  0  0  0  0  0
  -22.2975   18.9679  -11.4084 C   0  0  0  0  0  0
  -22.6238   20.1809  -10.5781 C   0  0  0  0  0  0
  -22.0422   21.3276  -11.2779 N   0  0  0  0  0  0
  -21.3602   20.8486  -12.2711 C   0  0  0  0  0  0
  -20.6334   22.0419  -13.3060 S   0  0  0  0  0  0
  -21.7481   23.5054  -13.3520 C   0  0  0  0  0  0
  -21.4490   24.5250  -12.3110 C   0  0  0  0  0  0
  -22.2832   25.9397  -12.1052 C   0  0  0  0  0  0
  -22.3584   26.9158  -10.8090 N   0  0  0  0  0  0
  -21.6791   26.5945   -9.5230 C   0  0  0  0  0  0
  -20.8216   25.1827   -9.3398 C   0  0  0  0  0  0
  -20.6195   23.9692  -10.8867 C   0  0  0  0  0  0
  -19.8374   18.4720  -14.2063 C   0  0  0  0  0  0
  -18.3185   19.1911  -13.8068 C   0  0  0  0  0  0
  -17.1547   19.3636  -15.3129 C   0  0  0  0  0  0
  -16.6433   17.9961  -15.6522 C   0  0  0  0  0  0
  -17.8227   17.1473  -16.0699 C   0  0  0  0  0  0
  -18.4844   17.8768  -17.6490 C   0  0  0  0  0  0
  -19.4936   19.5591  -17.3524 C   0  0  0  0  0  0
  -17.7042   20.0714  -16.9639 C   0  0  0  0  0  0
  -20.9249   19.5010  -15.6109 C   0  0  0  0  0  0
  -18.8803   16.9907  -14.5838 C   0  0  0  0  0  0
  1  2  2  0  0  0
  2  3  1  0  0  0
  3  4  1  0  0  0
  3  7  1  0  0  0
  4  5  1  0  0  0
  5  6  1  0  0  0
  6  7  2  0  0  0
  7  8  1  0  0  0
  8  9  1  0  0  0
  9 10  1  0  0  0
 10 11  2  0  0  0
 10 15  1  0  0  0
 11 12  1  0  0  0
 12 13  2  0  0  0
 13 14  1  0  0  0
 14 15  2  0  0  0
 16  2  1  0  0  0
 16 17  1  0  0  0
 16 24  1  0  0  0
 16 25  1  0  0  0
 17 18  1  0  0  0
 18 19  1  0  0  0
 18 23  1  0  0  0
 19 20  1  0  0  0
 20 21  1  0  0  0
 20 25  1  0  0  0
 21 22  1  0  0  0
 22 23  1  0  0  0
 22 24  1  0  0  0
M  END
>  <CHROM.0>
-62.11479982,-73.82817957,-167.45181075,-59.58458407,33.32999400,64.92496602
-37.16704812,-167.16115167

>  <CHROM.1>
139.22643815,90.86688647,-179.79799201,-112.03330685,-20.36538844,20.85081924
-13.33109409,0.94357165,-0.91598983,-3.04997429

>  <Name>
F0630-1662

>  <RI>
2.24157e+07

>  <Rbt.Current_Directory>
/home/adria/Escritorio/rDock_CMTR_LC/2pxcA_model/inputs_sah

>  <Rbt.Executable>
rbdock ($Id: //depot/dev/client3/rdock/2013.1/src/exe/rbdock.cxx#4 $)

>  <Rbt.Library>
libRbt.so (2013.1, Build901 2013/11/27)

>  <Rbt.Parameter_File>
/home/adria/Escritorio/rDock_2013.1_src/data/scripts/dock.prm

>  <Rbt.Receptor>
sah_rdock.prm

>  <SCORE>
-280.008

>  <SCORE.INTER>
-14.2201

>  <SCORE.INTER.CONST>
1

>  <SCORE.INTER.POLAR>
-0.691671

>  <SCORE.INTER.REPUL>
0

>  <SCORE.INTER.ROT>
4

>  <SCORE.INTER.VDW>
-21.2684

>  <SCORE.INTER.norm>
-0.568805

>  <SCORE.INTRA>
-270.411

>  <SCORE.INTRA.DIHEDRAL>
-1.17602

>  <SCORE.INTRA.DIHEDRAL.0>
5.11813

>  <SCORE.INTRA.POLAR>
0

>  <SCORE.INTRA.POLAR.0>
0

>  <SCORE.INTRA.REPUL>
0

>  <SCORE.INTRA.REPUL.0>
0

>  <SCORE.INTRA.VDW>
-269.823

>  <SCORE.INTRA.VDW.0>
267.927

>  <SCORE.INTRA.norm>
-10.8164

>  <SCORE.RESTR>
0

>  <SCORE.RESTR.CAVITY>
0

>  <SCORE.RESTR.norm>
0

>  <SCORE.SYSTEM>
4.62245

>  <SCORE.SYSTEM.CONST>
0

>  <SCORE.SYSTEM.DIHEDRAL>
5.71315

>  <SCORE.SYSTEM.POLAR>
-3.67823

>  <SCORE.SYSTEM.REPUL>
0.0399808

>  <SCORE.SYSTEM.VDW>
14.0719

>  <SCORE.SYSTEM.norm>
0.184898

>  <SCORE.heavy>
25

>  <SCORE.norm>
-11.2003

$$$$
F0630-1662
  rDOCK(R)          3D
libRbt.so/2013.1/901 2013/11/27
 25 29  0  0  0  0  0  0  0  0999 V2000
  -24.8092   22.9819   -7.9828 O   0  0  0  0  0  0
  -23.9910   22.5029   -8.7755 C   0  0  0  0  0  0
  -23.9167   21.0668   -9.0316 N   0  0  0  0  0  0
  -24.8523   20.3684   -8.1963 C   0  0  0  0  0  0
  -24.8299   18.9261   -8.6281 C   0  0  0  0  0  0
  -23.7560   18.8084   -9.6157 N   0  0  0  0  0  0
  -23.3227   20.0102   -9.8371 C   0  0  0  0  0  0
  -21.9755   20.1153  -10.9313 S   0  0  0  0  0  0
  -21.5961   18.4158  -11.5264 C   0  0  0  0  0  0
  -20.5114   18.3601  -12.5426 C   0  0  0  0  0  0
  -20.5391   17.4210  -13.9054 C   0  0  0  0  0  0
  -19.6720   17.5575  -15.2722 N   0  0  0  0  0  0
  -18.7143   18.6740  -15.5059 C   0  0  0  0  0  0
  -18.5055   19.8712  -14.3722 C   0  0  0  0  0  0
  -19.4681   19.7477  -12.6505 C   0  0  0  0  0  0
  -23.2826   23.4300   -9.7094 C   0  0  0  0  0  0
  -22.6055   24.9465   -9.2349 C   0  0  0  0  0  0
  -21.8236   25.9041  -10.6923 C   0  0  0  0  0  0
  -20.5403   25.2180  -11.0518 C   0  0  0  0  0  0
  -20.8756   23.8255  -11.5361 C   0  0  0  0  0  0
  -21.8393   24.0176  -13.1165 C   0  0  0  0  0  0
  -23.7047   24.6193  -12.8087 C   0  0  0  0  0  0
  -22.6875   26.1562  -12.3412 C   0  0  0  0  0  0
  -24.7659   23.5632  -11.1224 C   0  0  0  0  0  0
  -21.5873   22.9501  -10.0943 C   0  0  0  0  0  0
  1  2  2  0  0  0
  2  3  1  0  0  0
  3  4  1  0  0  0
  3  7  1  0  0  0
  4  5  1  0  0  0
  5  6  1  0  0  0
  6  7  2  0  0  0
  7  8  1  0  0  0
  8  9  1  0  0  0
  9 10  1  0  0  0
 10 11  2  0  0  0
 10 15  1  0  0  0
 11 12  1  0  0  0
 12 13  2  0  0  0
 13 14  1  0  0  0
 14 15  2  0  0  0
 16  2  1  0  0  0
 16 17  1  0  0  0
 16 24  1  0  0  0
 16 25  1  0  0  0
 17 18  1  0  0  0
 18 19  1  0  0  0
 18 23  1  0  0  0
 19 20  1  0  0  0
 20 21  1  0  0  0
 20 25  1  0  0  0
 21 22  1  0  0  0
 22 23  1  0  0  0
 22 24  1  0  0  0
M  END
>  <CHROM.0>
174.31318777,65.70637635,73.31628201,64.66338546,-30.73608026,-179.46537170
82.86668953,-158.98460618

>  <CHROM.1>
174.61583941,176.38783819,-137.71186739,44.37195461,-22.19067372,21.52649041
-11.17273543,2.36080232,0.85426147,-0.01933007

>  <Name>
F0630-1662

>  <RI>
2.24157e+07

>  <Rbt.Current_Directory>
/home/adria/Escritorio/rDock_CMTR_LC/2pxcA_model/inputs_sah

>  <Rbt.Executable>
rbdock ($Id: //depot/dev/client3/rdock/2013.1/src/exe/rbdock.cxx#4 $)

>  <Rbt.Library>
libRbt.so (2013.1, Build901 2013/11/27)

>  <Rbt.Parameter_File>
/home/adria/Escritorio/rDock_2013.1_src/data/scripts/dock.prm

>  <Rbt.Receptor>
sah_rdock.prm

>  <SCORE>
-275.378

>  <SCORE.INTER>
0.782663

>  <SCORE.INTER.CONST>
1

>  <SCORE.INTER.POLAR>
-0.416397

>  <SCORE.INTER.REPUL>
0

>  <SCORE.INTER.ROT>
4

>  <SCORE.INTER.VDW>
-7.20159

>  <SCORE.INTER.norm>
0.0313065

>  <SCORE.INTRA>
-269.365

>  <SCORE.INTRA.DIHEDRAL>
-1.80229

>  <SCORE.INTRA.DIHEDRAL.0>
5.11813

>  <SCORE.INTRA.POLAR>
0

>  <SCORE.INTRA.POLAR.0>
0

>  <SCORE.INTRA.REPUL>
0

>  <SCORE.INTRA.REPUL.0>
0

>  <SCORE.INTRA.VDW>
-268.464

>  <SCORE.INTRA.VDW.0>
267.927

>  <SCORE.INTRA.norm>
-10.7746

>  <SCORE.RESTR>
0

>  <SCORE.RESTR.CAVITY>
0

>  <SCORE.RESTR.norm>
0

>  <SCORE.SYSTEM>
-6.79577

>  <SCORE.SYSTEM.CONST>
0

>  <SCORE.SYSTEM.DIHEDRAL>
6.06756

>  <SCORE.SYSTEM.POLAR>
-3.69503

>  <SCORE.SYSTEM.VDW>
2.73354

>  <SCORE.SYSTEM.norm>
-0.271831

>  <SCORE.heavy>
25

>  <SCORE.norm>
-11.0151

$$$$
F0630-1662
  rDOCK(R)          3D
libRbt.so/2013.1/901 2013/11/27
 25 29  0  0  0  0  0  0  0  0999 V2000
  -22.4699   19.2688  -10.0857 O   0  0  0  0  0  0
  -22.1126   19.9266  -11.0691 C   0  0  0  0  0  0
  -21.5042   19.2959  -12.2376 N   0  0  0  0  0  0
  -21.3459   17.8872  -12.0108 C   0  0  0  0  0  0
  -20.8659   17.2884  -13.3062 C   0  0  0  0  0  0
  -20.6166   18.4112  -14.2116 N   0  0  0  0  0  0
  -21.0262   19.4785  -13.6000 C   0  0  0  0  0  0
  -20.7569   20.9661  -14.4590 S   0  0  0  0  0  0
  -18.9397   21.2301  -14.5776 C   0  0  0  0  0  0
  -18.2331   20.2071  -15.3943 C   0  0  0  0  0  0
  -17.7903   18.7064  -14.8545 C   0  0  0  0  0  0
  -17.4147   17.3726  -15.7023 N   0  0  0  0  0  0
  -17.4915   17.3194  -17.1888 C   0  0  0  0  0  0
  -18.0029   18.6358  -18.0649 C   0  0  0  0  0  0
  -18.4136   20.3227  -17.1205 C   0  0  0  0  0  0
  -22.5908   21.3373  -11.1897 C   0  0  0  0  0  0
  -23.1376   22.2886   -9.8556 C   0  0  0  0  0  0
  -23.7325   24.0293  -10.3737 C   0  0  0  0  0  0
  -22.5201   24.8426  -10.7132 C   0  0  0  0  0  0
  -21.8503   24.2045  -11.9090 C   0  0  0  0  0  0
  -23.0246   24.3725  -13.3430 C   0  0  0  0  0  0
  -24.5572   23.1177  -13.2297 C   0  0  0  0  0  0
  -24.9059   24.3323  -11.8090 C   0  0  0  0  0  0
  -24.0054   21.0118  -12.6414 C   0  0  0  0  0  0
  -21.2748   22.5608  -11.3447 C   0  0  0  0  0  0
  1  2  2  0  0  0
  2  3  1  0  0  0
  3  4  1  0  0  0
  3  7  1  0  0  0
  4  5  1  0  0  0
  5  6  1  0  0  0
  6  7  2  0  0  0
  7  8  1  0  0  0
  8  9  1  0  0  0
  9 10  1  0  0  0
 10 11  2  0  0  0
 10 15  1  0  0  0
 11 12  1  0  0  0
 12 13  2  0  0  0
 13 14  1  0  0  0
 14 15  2  0  0  0
 16  2  1  0  0  0
 16 17  1  0  0  0
 16 24  1  0  0  0
 16 25  1  0  0  0
 17 18  1  0  0  0
 18 19  1  0  0  0
 18 23  1  0  0  0
 19 20  1  0  0  0
 20 21  1  0  0  0
 20 25  1  0  0  0
 21 22  1  0  0  0
 22 23  1  0  0  0
 22 24  1  0  0  0
M  END
>  <CHROM.0>
-176.71666044,66.70084042,-10.02746160,64.73680687,-30.32459462,61.46094434
-155.29308778,-162.14236152

>  <CHROM.1>
106.50125285,64.94133088,-80.87971127,21.80518855,-21.15226233,20.74844240
-13.23740527,2.83343814,0.89041858,-0.40227703

>  <Name>
F0630-1662

>  <RI>
2.24157e+07

>  <Rbt.Current_Directory>
/home/adria/Escritorio/rDock_CMTR_LC/2pxcA_model/inputs_sah

>  <Rbt.Executable>
rbdock ($Id: //depot/dev/client3/rdock/2013.1/src/exe/rbdock.cxx#4 $)

>  <Rbt.Library>
libRbt.so (2013.1, Build901 2013/11/27)

>  <Rbt.Parameter_File>
/home/adria/Escritorio/rDock_2013.1_src/data/scripts/dock.prm

>  <Rbt.Receptor>
sah_rdock.prm

>  <SCORE>
-287.016

>  <SCORE.INTER>
-9.07965

>  <SCORE.INTER.CONST>
1

>  <SCORE.INTER.POLAR>
-0.453796

>  <SCORE.INTER.REPUL>
0

>  <SCORE.INTER.ROT>
4

>  <SCORE.INTER.VDW>
-16.9367

>  <SCORE.INTER.norm>
-0.363186

>  <SCORE.INTRA>
-271.269

>  <SCORE.INTRA.DIHEDRAL>
0.23236

>  <SCORE.INTRA.DIHEDRAL.0>
5.11813

>  <SCORE.INTRA.POLAR>
0

>  <SCORE.INTRA.POLAR.0>
0

>  <SCORE.INTRA.REPUL>
0

>  <SCORE.INTRA.REPUL.0>
0

>  <SCORE.INTRA.VDW>
-271.385

>  <SCORE.INTRA.VDW.0>
267.927

>  <SCORE.INTRA.norm>
-10.8507

>  <SCORE.RESTR>
0

>  <SCORE.RESTR.CAVITY>
0

>  <SCORE.RESTR.norm>
0

>  <SCORE.SYSTEM>
-6.66818

>  <SCORE.SYSTEM.CONST>
0

>  <SCORE.SYSTEM.DIHEDRAL>
9.04317

>  <SCORE.SYSTEM.POLAR>
-4.32527

>  <SCORE.SYSTEM.VDW>
3.51616

>  <SCORE.SYSTEM.norm>
-0.266727

>  <SCORE.heavy>
25

>  <SCORE.norm>
-11.4807

$$$$
F0630-1662
  rDOCK(R)          3D
libRbt.so/2013.1/901 2013/11/27
 25 29  0  0  0  0  0  0  0  0999 V2000
  -25.0478   20.4368  -14.3378 O   0  0  0  0  0  0
  -24.0588   20.4227  -13.5969 C   0  0  0  0  0  0
  -23.0442   19.3758  -13.6868 N   0  0  0  0  0  0
  -23.4251   18.4039  -14.6723 C   0  0  0  0  0  0
  -22.2658   17.4544  -14.8189 C   0  0  0  0  0  0
  -21.2949   17.8278  -13.7891 N   0  0  0  0  0  0
  -21.7427   18.9097  -13.2323 C   0  0  0  0  0  0
  -20.7846   19.5053  -11.9093 S   0  0  0  0  0  0
  -19.6061   20.7497  -12.5794 C   0  0  0  0  0  0
  -18.9464   20.3353  -13.8465 C   0  0  0  0  0  0
  -18.4509   18.7950  -14.1954 C   0  0  0  0  0  0
  -18.1201   18.1168  -15.6338 N   0  0  0  0  0  0
  -18.2987   18.8422  -16.9223 C   0  0  0  0  0  0
  -18.8839   20.3975  -16.9524 C   0  0  0  0  0  0
  -19.2469   21.3247  -15.2452 C   0  0  0  0  0  0
  -23.7417   21.6559  -12.8146 C   0  0  0  0  0  0
  -22.2964   22.5806  -13.0143 C   0  0  0  0  0  0
  -22.1861   24.0627  -11.8127 C   0  0  0  0  0  0
  -23.1548   25.1047  -12.2847 C   0  0  0  0  0  0
  -24.5480   24.5262  -12.1838 C   0  0  0  0  0  0
  -24.8940   24.2557  -10.3753 C   0  0  0  0  0  0
  -23.9298   22.6870   -9.6366 C   0  0  0  0  0  0
  -22.5235   23.9226   -9.9701 C   0  0  0  0  0  0
  -23.9863   20.8495  -10.9426 C   0  0  0  0  0  0
  -24.6030   23.1378  -13.3758 C   0  0  0  0  0  0
  1  2  2  0  0  0
  2  3  1  0  0  0
  3  4  1  0  0  0
  3  7  1  0  0  0
  4  5  1  0  0  0
  5  6  1  0  0  0
  6  7  2  0  0  0
  7  8  1  0  0  0
  8  9  1  0  0  0
  9 10  1  0  0  0
 10 11  2  0  0  0
 10 15  1  0  0  0
 11 12  1  0  0  0
 12 13  2  0  0  0
 13 14  1  0  0  0
 14 15  2  0  0  0
 16  2  1  0  0  0
 16 17  1  0  0  0
 16 24  1  0  0  0
 16 25  1  0  0  0
 17 18  1  0  0  0
 18 19  1  0  0  0
 18 23  1  0  0  0
 19 20  1  0  0  0
 20 21  1  0  0  0
 20 25  1  0  0  0
 21 22  1  0  0  0
 22 23  1  0  0  0
 22 24  1  0  0  0
M  END
>  <CHROM.0>
-176.78556623,67.28433995,76.90741789,-61.80501308,-30.65684585,-59.24121679
83.17236160,-48.29568559

>  <CHROM.1>
-93.96570222,-44.14215679,-37.77705733,-116.79659859,-21.94037568,20.87428607
-13.19600532,2.23875610,0.24877277,0.47795998

>  <Name>
F0630-1662

>  <RI>
2.24157e+07

>  <Rbt.Current_Directory>
/home/adria/Escritorio/rDock_CMTR_LC/2pxcA_model/inputs_sah

>  <Rbt.Executable>
rbdock ($Id: //depot/dev/client3/rdock/2013.1/src/exe/rbdock.cxx#4 $)

>  <Rbt.Library>
libRbt.so (2013.1, Build901 2013/11/27)

>  <Rbt.Parameter_File>
/home/adria/Escritorio/rDock_2013.1_src/data/scripts/dock.prm

>  <Rbt.Receptor>
sah_rdock.prm

>  <SCORE>
-283.934

>  <SCORE.INTER>
-8.15298

>  <SCORE.INTER.CONST>
1

>  <SCORE.INTER.POLAR>
0

>  <SCORE.INTER.REPUL>
0

>  <SCORE.INTER.ROT>
4

>  <SCORE.INTER.VDW>
-17.553

>  <SCORE.INTER.norm>
-0.326119

>  <SCORE.INTRA>
-271.273

>  <SCORE.INTRA.DIHEDRAL>
0.158222

>  <SCORE.INTRA.DIHEDRAL.0>
5.11813

>  <SCORE.INTRA.POLAR>
0

>  <SCORE.INTRA.POLAR.0>
0

>  <SCORE.INTRA.REPUL>
0

>  <SCORE.INTRA.REPUL.0>
0

>  <SCORE.INTRA.VDW>
-271.352

>  <SCORE.INTRA.VDW.0>
267.927

>  <SCORE.INTRA.norm>
-10.8509

>  <SCORE.RESTR>
0

>  <SCORE.RESTR.CAVITY>
0

>  <SCORE.RESTR.norm>
0

>  <SCORE.SYSTEM>
-4.50773

>  <SCORE.SYSTEM.CONST>
0

>  <SCORE.SYSTEM.DIHEDRAL>
8.3072

>  <SCORE.SYSTEM.POLAR>
-3.35288

>  <SCORE.SYSTEM.REPUL>
0.0161158

>  <SCORE.SYSTEM.VDW>
2.65787

>  <SCORE.SYSTEM.norm>
-0.180309

>  <SCORE.heavy>
25

>  <SCORE.norm>
-11.3574

$$$$
F0630-1662
  rDOCK(R)          3D
libRbt.so/2013.1/901 2013/11/27
 25 29  0  0  0  0  0  0  0  0999 V2000
  -25.0964   22.9669   -8.1099 O   0  0  0  0  0  0
  -24.1468   22.5138   -8.7582 C   0  0  0  0  0  0
  -23.9803   21.0798   -8.9798 N   0  0  0  0  0  0
  -25.0089   20.3521   -8.2917 C   0  0  0  0  0  0
  -24.8658   18.9085   -8.6950 C   0  0  0  0  0  0
  -23.6466   18.8248   -9.5007 N   0  0  0  0  0  0
  -23.2286   20.0408   -9.6679 C   0  0  0  0  0  0
  -21.7313   20.1893  -10.5392 S   0  0  0  0  0  0
  -21.4470   18.6148  -11.4482 C   0  0  0  0  0  0
  -20.6255   18.7680  -12.6787 C   0  0  0  0  0  0
  -19.2939   19.7421  -12.8121 C   0  0  0  0  0  0
  -18.0874   19.6999  -13.8988 N   0  0  0  0  0  0
  -17.9955   18.6533  -14.9546 C   0  0  0  0  0  0
  -19.1266   17.4397  -15.0543 C   0  0  0  0  0  0
  -20.6672   17.4527  -13.8162 C   0  0  0  0  0  0
  -23.3355   23.4604   -9.5823 C   0  0  0  0  0  0
  -23.4670   25.1801   -9.4869 C   0  0  0  0  0  0
  -22.3244   26.0861  -10.7222 C   0  0  0  0  0  0
  -20.9191   25.9665  -10.2146 C   0  0  0  0  0  0
  -20.5438   24.5019  -10.2214 C   0  0  0  0  0  0
  -20.5171   23.9564  -12.0005 C   0  0  0  0  0  0
  -22.3358   23.7406  -12.7635 C   0  0  0  0  0  0
  -22.1979   25.6237  -12.5385 C   0  0  0  0  0  0
  -23.7970   22.6704  -11.4201 C   0  0  0  0  0  0
  -21.6445   23.6956   -9.0008 C   0  0  0  0  0  0
  1  2  2  0  0  0
  2  3  1  0  0  0
  3  4  1  0  0  0
  3  7  1  0  0  0
  4  5  1  0  0  0
  5  6  1  0  0  0
  6  7  2  0  0  0
  7  8  1  0  0  0
  8  9  1  0  0  0
  9 10  1  0  0  0
 10 11  2  0  0  0
 10 15  1  0  0  0
 11 12  1  0  0  0
 12 13  2  0  0  0
 13 14  1  0  0  0
 14 15  2  0  0  0
 16  2  1  0  0  0
 16 17  1  0  0  0
 16 24  1  0  0  0
 16 25  1  0  0  0
 17 18  1  0  0  0
 18 19  1  0  0  0
 18 23  1  0  0  0
 19 20  1  0  0  0
 20 21  1  0  0  0
 20 25  1  0  0  0
 21 22  1  0  0  0
 22 23  1  0  0  0
 22 24  1  0  0  0
M  END
>  <CHROM.0>
-60.84977146,67.04560481,-128.33366208,64.82625200,-30.40063246,-177.62321765
-38.43823315,-159.46660564

>  <CHROM.1>
-169.41292495,152.89612934,40.36058407,10.69504664,-22.01903981,21.56070338
-10.94773252,2.31214864,0.76458943,0.08812232

>  <Name>
F0630-1662

>  <RI>
2.24157e+07

>  <Rbt.Current_Directory>
/home/adria/Escritorio/rDock_CMTR_LC/2pxcA_model/inputs_sah

>  <Rbt.Executable>
rbdock ($Id: //depot/dev/client3/rdock/2013.1/src/exe/rbdock.cxx#4 $)

>  <Rbt.Library>
libRbt.so (2013.1, Build901 2013/11/27)

>  <Rbt.Parameter_File>
/home/adria/Escritorio/rDock_2013.1_src/data/scripts/dock.prm

>  <Rbt.Receptor>
sah_rdock.prm

>  <SCORE>
-276.801

>  <SCORE.INTER>
0.972163

>  <SCORE.INTER.CONST>
1

>  <SCORE.INTER.POLAR>
-0.458593

>  <SCORE.INTER.REPUL>
0

>  <SCORE.INTER.ROT>
4

>  <SCORE.INTER.VDW>
-6.86862

>  <SCORE.INTER.norm>
0.0388865

>  <SCORE.INTRA>
-271.044

>  <SCORE.INTRA.DIHEDRAL>
-2.42914

>  <SCORE.INTRA.DIHEDRAL.0>
5.11813

>  <SCORE.INTRA.POLAR>
0

>  <SCORE.INTRA.POLAR.0>
0

>  <SCORE.INTRA.REPUL>
0

>  <SCORE.INTRA.REPUL.0>
0

>  <SCORE.INTRA.VDW>
-269.829

>  <SCORE.INTRA.VDW.0>
267.927

>  <SCORE.INTRA.norm>
-10.8418

>  <SCORE.RESTR>
0

>  <SCORE.RESTR.CAVITY>
0

>  <SCORE.RESTR.norm>
0

>  <SCORE.SYSTEM>
-6.72871

>  <SCORE.SYSTEM.CONST>
0

>  <SCORE.SYSTEM.DIHEDRAL>
8.95104

>  <SCORE.SYSTEM.POLAR>
-4.19886

>  <SCORE.SYSTEM.VDW>
3.07192

>  <SCORE.SYSTEM.norm>
-0.269148

>  <SCORE.heavy>
25

>  <SCORE.norm>
-11.072

$$$$
F0630-1662
  rDOCK(R)          3D
libRbt.so/2013.1/901 2013/11/27
 25 29  0  0  0  0  0  0  0  0999 V2000
  -24.0714   18.6545  -13.7745 O   0  0  0  0  0  0
  -23.0077   19.2180  -13.4944 C   0  0  0  0  0  0
  -22.7838   19.8359  -12.1901 N   0  0  0  0  0  0
  -23.9697   19.7354  -11.3873 C   0  0  0  0  0  0
  -23.6126   20.2462  -10.0166 C   0  0  0  0  0  0
  -22.2501   20.7720  -10.1149 N   0  0  0  0  0  0
  -21.8253   20.4803  -11.3047 C   0  0  0  0  0  0
  -20.2385   21.0805  -11.6855 S   0  0  0  0  0  0
  -20.4048   22.8447  -12.1818 C   0  0  0  0  0  0
  -20.8064   23.7490  -11.0712 C   0  0  0  0  0  0
  -20.0169   25.1425  -10.6534 C   0  0  0  0  0  0
  -20.5463   26.4097   -9.7859 N   0  0  0  0  0  0
  -21.9419   26.5040   -9.2740 C   0  0  0  0  0  0
  -23.0522   25.3103   -9.5971 C   0  0  0  0  0  0
  -22.4762   23.6992  -10.5864 C   0  0  0  0  0  0
  -21.8304   18.9937  -14.3873 C   0  0  0  0  0  0
  -21.9319   18.8789  -16.1078 C   0  0  0  0  0  0
  -20.2439   18.5314  -16.9339 C   0  0  0  0  0  0
  -19.4359   19.7921  -16.8668 C   0  0  0  0  0  0
  -19.1848   20.1082  -15.4098 C   0  0  0  0  0  0
  -18.1083   18.7476  -14.7366 C   0  0  0  0  0  0
  -19.1030   17.0557  -14.4462 C   0  0  0  0  0  0
  -19.0625   17.1962  -16.3420 C   0  0  0  0  0  0
  -21.1158   17.3069  -13.4608 C   0  0  0  0  0  0
  -20.8270   20.4630  -14.6826 C   0  0  0  0  0  0
  1  2  2  0  0  0
  2  3  1  0  0  0
  3  4  1  0  0  0
  3  7  1  0  0  0
  4  5  1  0  0  0
  5  6  1  0  0  0
  6  7  2  0  0  0
  7  8  1  0  0  0
  8  9  1  0  0  0
  9 10  1  0  0  0
 10 11  2  0  0  0
 10 15  1  0  0  0
 11 12  1  0  0  0
 12 13  2  0  0  0
 13 14  1  0  0  0
 14 15  2  0  0  0
 16  2  1  0  0  0
 16 17  1  0  0  0
 16 24  1  0  0  0
 16 25  1  0  0  0
 17 18  1  0  0  0
 18 19  1  0  0  0
 18 23  1  0  0  0
 19 20  1  0  0  0
 20 21  1  0  0  0
 20 25  1  0  0  0
 21 22  1  0  0  0
 22 23  1  0  0  0
 22 24  1  0  0  0
M  END
>  <CHROM.0>
-60.28200233,66.43097841,-8.88744075,64.88709373,34.03336290,60.46127037
-36.41275715,-163.93936775

>  <CHROM.1>
90.76788371,68.06604757,128.21329057,38.48646637,-21.23154407,20.80570490
-12.78162230,1.36414995,-0.60259352,-2.54618889

>  <Name>
F0630-1662

>  <RI>
2.24157e+07

>  <Rbt.Current_Directory>
/home/adria/Escritorio/rDock_CMTR_LC/2pxcA_model/inputs_sah

>  <Rbt.Executable>
rbdock ($Id: //depot/dev/client3/rdock/2013.1/src/exe/rbdock.cxx#4 $)

>  <Rbt.Library>
libRbt.so (2013.1, Build901 2013/11/27)

>  <Rbt.Parameter_File>
/home/adria/Escritorio/rDock_2013.1_src/data/scripts/dock.prm

>  <Rbt.Receptor>
sah_rdock.prm

>  <SCORE>
-279.288

>  <SCORE.INTER>
-14.4288

>  <SCORE.INTER.CONST>
1

>  <SCORE.INTER.POLAR>
-0.938083

>  <SCORE.INTER.REPUL>
0

>  <SCORE.INTER.ROT>
4

>  <SCORE.INTER.VDW>
-20.6393

>  <SCORE.INTER.norm>
-0.577152

>  <SCORE.INTRA>
-269.709

>  <SCORE.INTRA.DIHEDRAL>
1.87761

>  <SCORE.INTRA.DIHEDRAL.0>
5.11813

>  <SCORE.INTRA.POLAR>
0

>  <SCORE.INTRA.POLAR.0>
0

>  <SCORE.INTRA.REPUL>
0

>  <SCORE.INTRA.REPUL.0>
0

>  <SCORE.INTRA.VDW>
-270.648

>  <SCORE.INTRA.VDW.0>
267.927

>  <SCORE.INTRA.norm>
-10.7884

>  <SCORE.RESTR>
0

>  <SCORE.RESTR.CAVITY>
0

>  <SCORE.RESTR.norm>
0

>  <SCORE.SYSTEM>
4.84977

>  <SCORE.SYSTEM.CONST>
0

>  <SCORE.SYSTEM.DIHEDRAL>
8.1486

>  <SCORE.SYSTEM.POLAR>
-4.01417

>  <SCORE.SYSTEM.VDW>
14.4237

>  <SCORE.SYSTEM.norm>
0.193991

>  <SCORE.heavy>
25

>  <SCORE.norm>
-11.1715

$$$$
F0630-1662
  rDOCK(R)          3D
libRbt.so/2013.1/901 2013/11/27
 25 29  0  0  0  0  0  0  0  0999 V2000
  -26.0717   22.8825   -9.1124 O   0  0  0  0  0  0
  -24.9857   22.4201   -9.4789 C   0  0  0  0  0  0
  -24.5508   21.0796   -9.0954 N   0  0  0  0  0  0
  -25.5173   20.4797   -8.2197 C   0  0  0  0  0  0
  -25.0811   19.0555   -7.9992 C   0  0  0  0  0  0
  -23.7752   18.9199   -8.6465 N   0  0  0  0  0  0
  -23.5534   20.0343   -9.2709 C   0  0  0  0  0  0
  -22.0072   20.1394  -10.0590 S   0  0  0  0  0  0
  -21.9273   18.8090  -11.3279 C   0  0  0  0  0  0
  -20.7340   18.8890  -12.2122 C   0  0  0  0  0  0
  -20.3989   17.8382  -13.4464 C   0  0  0  0  0  0
  -19.4113   18.0243  -14.7225 N   0  0  0  0  0  0
  -18.6768   19.2922  -14.9898 C   0  0  0  0  0  0
  -18.8591   20.6105  -13.9944 C   0  0  0  0  0  0
  -19.9870   20.4510  -12.3792 C   0  0  0  0  0  0
  -24.2521   23.1194  -10.5772 C   0  0  0  0  0  0
  -23.7497   22.3545  -12.0422 C   0  0  0  0  0  0
  -22.7848   23.5260  -13.2035 C   0  0  0  0  0  0
  -23.7693   24.4819  -13.8067 C   0  0  0  0  0  0
  -24.3564   25.3139  -12.6891 C   0  0  0  0  0  0
  -22.9710   26.3430  -11.9928 C   0  0  0  0  0  0
  -21.7196   25.2868  -10.8726 C   0  0  0  0  0  0
  -21.3760   24.6238  -12.6212 C   0  0  0  0  0  0
  -22.7179   23.8649   -9.4349 C   0  0  0  0  0  0
  -25.2920   24.1475  -11.6328 C   0  0  0  0  0  0
  1  2  2  0  0  0
  2  3  1  0  0  0
  3  4  1  0  0  0
  3  7  1  0  0  0
  4  5  1  0  0  0
  5  6  1  0  0  0
  6  7  2  0  0  0
  7  8  1  0  0  0
  8  9  1  0  0  0
  9 10  1  0  0  0
 10 11  2  0  0  0
 10 15  1  0  0  0
 11 12  1  0  0  0
 12 13  2  0  0  0
 13 14  1  0  0  0
 14 15  2  0  0  0
 16  2  1  0  0  0
 16 17  1  0  0  0
 16 24  1  0  0  0
 16 25  1  0  0  0
 17 18  1  0  0  0
 18 19  1  0  0  0
 18 23  1  0  0  0
 19 20  1  0  0  0
 20 21  1  0  0  0
 20 25  1  0  0  0
 21 22  1  0  0  0
 22 23  1  0  0  0
 22 24  1  0  0  0
M  END
>  <CHROM.0>
-63.37191061,-170.95955242,-129.20795868,64.36312357,-30.77594839,-57.79710771
-161.76305773,-160.53563818

>  <CHROM.1>
-126.25960504,172.11074678,-179.62884278,-123.95279643,-22.74296013,21.61961367
-11.26275468,2.76348439,0.77930893,-0.41344206

>  <Name>
F0630-1662

>  <RI>
2.24157e+07

>  <Rbt.Current_Directory>
/home/adria/Escritorio/rDock_CMTR_LC/2pxcA_model/inputs_sah

>  <Rbt.Executable>
rbdock ($Id: //depot/dev/client3/rdock/2013.1/src/exe/rbdock.cxx#4 $)

>  <Rbt.Library>
libRbt.so (2013.1, Build901 2013/11/27)

>  <Rbt.Parameter_File>
/home/adria/Escritorio/rDock_2013.1_src/data/scripts/dock.prm

>  <Rbt.Receptor>
sah_rdock.prm

>  <SCORE>
-289.37

>  <SCORE.INTER>
-13.2515

>  <SCORE.INTER.CONST>
1

>  <SCORE.INTER.POLAR>
-0.670895

>  <SCORE.INTER.REPUL>
0

>  <SCORE.INTER.ROT>
4

>  <SCORE.INTER.VDW>
-20.3704

>  <SCORE.INTER.norm>
-0.530058

>  <SCORE.INTRA>
-270.237

>  <SCORE.INTRA.DIHEDRAL>
-0.380364

>  <SCORE.INTRA.DIHEDRAL.0>
5.11813

>  <SCORE.INTRA.POLAR>
0

>  <SCORE.INTRA.POLAR.0>
0

>  <SCORE.INTRA.REPUL>
0

>  <SCORE.INTRA.REPUL.0>
0

>  <SCORE.INTRA.VDW>
-270.047

>  <SCORE.INTRA.VDW.0>
267.927

>  <SCORE.INTRA.norm>
-10.8095

>  <SCORE.RESTR>
0

>  <SCORE.RESTR.CAVITY>
0

>  <SCORE.RESTR.norm>
0

>  <SCORE.SYSTEM>
-5.88092

>  <SCORE.SYSTEM.CONST>
0

>  <SCORE.SYSTEM.DIHEDRAL>
8.69935

>  <SCORE.SYSTEM.POLAR>
-4.11736

>  <SCORE.SYSTEM.VDW>
3.76844

>  <SCORE.SYSTEM.norm>
-0.235237

>  <SCORE.heavy>
25

>  <SCORE.norm>
-11.5748

$$$$
F0630-1662
  rDOCK(R)          3D
libRbt.so/2013.1/901 2013/11/27
 25 29  0  0  0  0  0  0  0  0999 V2000
  -23.6508   22.2858   -7.7651 O   0  0  0  0  0  0
  -23.4785   21.9010   -8.9268 C   0  0  0  0  0  0
  -23.8470   20.5539   -9.3544 N   0  0  0  0  0  0
  -24.3393   19.7996   -8.2366 C   0  0  0  0  0  0
  -24.8427   18.4897   -8.7824 C   0  0  0  0  0  0
  -24.4833   18.4694  -10.2012 N   0  0  0  0  0  0
  -23.9876   19.6358  -10.4748 C   0  0  0  0  0  0
  -23.4097   19.8245  -12.1038 S   0  0  0  0  0  0
  -22.8971   18.1672  -12.7178 C   0  0  0  0  0  0
  -21.8861   18.2135  -13.8079 C   0  0  0  0  0  0
  -20.5908   17.1915  -13.9409 C   0  0  0  0  0  0
  -19.6773   16.8446  -15.2384 N   0  0  0  0  0  0
  -19.9591   17.4036  -16.5899 C   0  0  0  0  0  0
  -21.2624   18.4026  -16.8459 C   0  0  0  0  0  0
  -22.3873   18.9333  -15.3099 C   0  0  0  0  0  0
  -23.1785   22.9233   -9.9748 C   0  0  0  0  0  0
  -22.2718   24.3648   -9.6855 C   0  0  0  0  0  0
  -22.1258   25.4783  -11.2319 C   0  0  0  0  0  0
  -21.1619   24.8239  -12.1749 C   0  0  0  0  0  0
  -21.7563   23.5026  -12.6070 C   0  0  0  0  0  0
  -23.2863   23.8918  -13.5925 C   0  0  0  0  0  0
  -24.8031   24.4756  -12.4545 C   0  0  0  0  0  0
  -23.5911   25.9340  -12.3154 C   0  0  0  0  0  0
  -25.1102   23.2406  -10.5929 C   0  0  0  0  0  0
  -21.8404   22.4716  -11.0965 C   0  0  0  0  0  0
  1  2  2  0  0  0
  2  3  1  0  0  0
  3  4  1  0  0  0
  3  7  1  0  0  0
  4  5  1  0  0  0
  5  6  1  0  0  0
  6  7  2  0  0  0
  7  8  1  0  0  0
  8  9  1  0  0  0
  9 10  1  0  0  0
 10 11  2  0  0  0
 10 15  1  0  0  0
 11 12  1  0  0  0
 12 13  2  0  0  0
 13 14  1  0  0  0
 14 15  2  0  0  0
 16  2  1  0  0  0
 16 17  1  0  0  0
 16 24  1  0  0  0
 16 25  1  0  0  0
 17 18  1  0  0  0
 18 19  1  0  0  0
 18 23  1  0  0  0
 19 20  1  0  0  0
 20 21  1  0  0  0
 20 25  1  0  0  0
 21 22  1  0  0  0
 22 23  1  0  0  0
 22 24  1  0  0  0
M  END
>  <CHROM.0>
-61.70362325,-166.20654243,67.45622001,64.88055849,168.01287783,-56.40344482
-156.68564168,-159.47214282

>  <CHROM.1>
144.48164269,-155.45710870,139.33742124,33.46731372,-22.84024216,21.04769625
-11.80969604,2.27459468,1.10956031,0.02463068

>  <Name>
F0630-1662

>  <RI>
2.24157e+07

>  <Rbt.Current_Directory>
/home/adria/Escritorio/rDock_CMTR_LC/2pxcA_model/inputs_sah

>  <Rbt.Executable>
rbdock ($Id: //depot/dev/client3/rdock/2013.1/src/exe/rbdock.cxx#4 $)

>  <Rbt.Library>
libRbt.so (2013.1, Build901 2013/11/27)

>  <Rbt.Parameter_File>
/home/adria/Escritorio/rDock_2013.1_src/data/scripts/dock.prm

>  <Rbt.Receptor>
sah_rdock.prm

>  <SCORE>
-281.653

>  <SCORE.INTER>
-9.81544

>  <SCORE.INTER.CONST>
1

>  <SCORE.INTER.POLAR>
-0.729752

>  <SCORE.INTER.REPUL>
0

>  <SCORE.INTER.ROT>
4

>  <SCORE.INTER.VDW>
-16.7343

>  <SCORE.INTER.norm>
-0.392618

>  <SCORE.INTRA>
-270.353

>  <SCORE.INTRA.DIHEDRAL>
-0.537478

>  <SCORE.INTRA.DIHEDRAL.0>
5.11813

>  <SCORE.INTRA.POLAR>
0

>  <SCORE.INTRA.POLAR.0>
0

>  <SCORE.INTRA.REPUL>
0

>  <SCORE.INTRA.REPUL.0>
0

>  <SCORE.INTRA.VDW>
-270.084

>  <SCORE.INTRA.VDW.0>
267.927

>  <SCORE.INTRA.norm>
-10.8141

>  <SCORE.RESTR>
0.050542

>  <SCORE.RESTR.CAVITY>
0.050542

>  <SCORE.RESTR.norm>
0.00202168

>  <SCORE.SYSTEM>
-1.53514

>  <SCORE.SYSTEM.CONST>
0

>  <SCORE.SYSTEM.DIHEDRAL>
3.65674

>  <SCORE.SYSTEM.POLAR>
-3.58488

>  <SCORE.SYSTEM.VDW>
8.82507

>  <SCORE.SYSTEM.norm>
-0.0614055

>  <SCORE.heavy>
25

>  <SCORE.norm>
-11.2661

$$$$
F0630-1662
  rDOCK(R)          3D
libRbt.so/2013.1/901 2013/11/27
 25 29  0  0  0  0  0  0  0  0999 V2000
  -22.3209   19.4000   -9.8579 O   0  0  0  0  0  0
  -21.9835   20.0540  -10.8509 C   0  0  0  0  0  0
  -21.4639   19.4121  -12.0555 N   0  0  0  0  0  0
  -21.3593   17.9948  -11.8526 C   0  0  0  0  0  0
  -20.9728   17.3922  -13.1772 C   0  0  0  0  0  0
  -20.7177   18.5145  -14.0816 N   0  0  0  0  0  0
  -21.0468   19.5910  -13.4383 C   0  0  0  0  0  0
  -20.7529   21.0762  -14.2933 S   0  0  0  0  0  0
  -18.9322   21.2776  -14.4683 C   0  0  0  0  0  0
  -18.2821   20.2132  -15.2789 C   0  0  0  0  0  0
  -17.9710   18.6767  -14.7477 C   0  0  0  0  0  0
  -17.6736   17.3281  -15.6029 N   0  0  0  0  0  0
  -17.7108   17.2982  -17.0916 C   0  0  0  0  0  0
  -18.0947   18.6601  -17.9634 C   0  0  0  0  0  0
  -18.4030   20.3623  -17.0076 C   0  0  0  0  0  0
  -22.4019   21.4865  -10.9316 C   0  0  0  0  0  0
  -23.6838   22.0624  -11.9359 C   0  0  0  0  0  0
  -23.9140   23.9572  -11.8399 C   0  0  0  0  0  0
  -24.5421   24.2732  -10.5161 C   0  0  0  0  0  0
  -23.5717   23.8665   -9.4304 C   0  0  0  0  0  0
  -22.0823   24.9707   -9.5918 C   0  0  0  0  0  0
  -20.9323   24.4860  -11.1341 C   0  0  0  0  0  0
  -22.4912   25.1762  -11.9761 C   0  0  0  0  0  0
  -20.5572   22.2747  -11.3676 C   0  0  0  0  0  0
  -23.4177   22.0462   -9.5505 C   0  0  0  0  0  0
  1  2  2  0  0  0
  2  3  1  0  0  0
  3  4  1  0  0  0
  3  7  1  0  0  0
  4  5  1  0  0  0
  5  6  1  0  0  0
  6  7  2  0  0  0
  7  8  1  0  0  0
  8  9  1  0  0  0
  9 10  1  0  0  0
 10 11  2  0  0  0
 10 15  1  0  0  0
 11 12  1  0  0  0
 12 13  2  0  0  0
 13 14  1  0  0  0
 14 15  2  0  0  0
 16  2  1  0  0  0
 16 17  1  0  0  0
 16 24  1  0  0  0
 16 25  1  0  0  0
 17 18  1  0  0  0
 18 19  1  0  0  0
 18 23  1  0  0  0
 19 20  1  0  0  0
 20 21  1  0  0  0
 20 25  1  0  0  0
 21 22  1  0  0  0
 22 23  1  0  0  0
 22 24  1  0  0  0
M  END
>  <CHROM.0>
-174.07753336,68.01965778,73.17748910,63.01296090,-29.23998544,-58.92817543
-154.36864930,-163.19238705

>  <CHROM.1>
105.27276455,63.04725017,-76.26420436,-103.94627716,-21.02576530,20.88534841
-12.83758463,2.63704727,0.92810283,-0.13828610

>  <Name>
F0630-1662

>  <RI>
2.24157e+07

>  <Rbt.Current_Directory>
/home/adria/Escritorio/rDock_CMTR_LC/2pxcA_model/inputs_sah

>  <Rbt.Executable>
rbdock ($Id: //depot/dev/client3/rdock/2013.1/src/exe/rbdock.cxx#4 $)

>  <Rbt.Library>
libRbt.so (2013.1, Build901 2013/11/27)

>  <Rbt.Parameter_File>
/home/adria/Escritorio/rDock_2013.1_src/data/scripts/dock.prm

>  <Rbt.Receptor>
sah_rdock.prm

>  <SCORE>
-289.205

>  <SCORE.INTER>
-11.9235

>  <SCORE.INTER.CONST>
1

>  <SCORE.INTER.POLAR>
-0.688413

>  <SCORE.INTER.REPUL>
0

>  <SCORE.INTER.ROT>
4

>  <SCORE.INTER.VDW>
-18.9829

>  <SCORE.INTER.norm>
-0.47694

>  <SCORE.INTRA>
-270.352

>  <SCORE.INTRA.DIHEDRAL>
-0.0340342

>  <SCORE.INTRA.DIHEDRAL.0>
5.11813

>  <SCORE.INTRA.POLAR>
0

>  <SCORE.INTRA.POLAR.0>
0

>  <SCORE.INTRA.REPUL>
0

>  <SCORE.INTRA.REPUL.0>
0

>  <SCORE.INTRA.VDW>
-270.335

>  <SCORE.INTRA.VDW.0>
267.927

>  <SCORE.INTRA.norm>
-10.8141

>  <SCORE.RESTR>
0

>  <SCORE.RESTR.CAVITY>
0

>  <SCORE.RESTR.norm>
0

>  <SCORE.SYSTEM>
-6.92963

>  <SCORE.SYSTEM.CONST>
0

>  <SCORE.SYSTEM.DIHEDRAL>
6.48018

>  <SCORE.SYSTEM.POLAR>
-3.80869

>  <SCORE.SYSTEM.VDW>
2.77981

>  <SCORE.SYSTEM.norm>
-0.277185

>  <SCORE.heavy>
25

>  <SCORE.norm>
-11.5682

$$$$
F0630-1662
  rDOCK(R)          3D
libRbt.so/2013.1/901 2013/11/27
 25 29  0  0  0  0  0  0  0  0999 V2000
  -24.6609   20.2259   -9.6285 O   0  0  0  0  0  0
  -23.7060   20.0074  -10.3820 C   0  0  0  0  0  0
  -23.5305   18.7199  -11.0491 N   0  0  0  0  0  0
  -24.5578   17.8066  -10.6354 C   0  0  0  0  0  0
  -24.4049   16.5679  -11.4777 C   0  0  0  0  0  0
  -23.1818   16.7508  -12.2608 N   0  0  0  0  0  0
  -22.7700   17.9581  -12.0285 C   0  0  0  0  0  0
  -21.2699   18.3831  -12.7980 S   0  0  0  0  0  0
  -21.5274   18.3108  -14.6186 C   0  0  0  0  0  0
  -20.4798   19.0155  -15.4050 C   0  0  0  0  0  0
  -19.6335   20.3383  -14.8816 C   0  0  0  0  0  0
  -18.2219   20.9393  -15.4152 N   0  0  0  0  0  0
  -17.4236   20.2805  -16.4862 C   0  0  0  0  0  0
  -17.9328   18.8576  -17.1777 C   0  0  0  0  0  0
  -19.6732   18.0917  -16.6385 C   0  0  0  0  0  0
  -22.8965   21.1708  -10.8560 C   0  0  0  0  0  0
  -21.1945   21.1090  -11.1444 C   0  0  0  0  0  0
  -20.4675   22.7909  -11.6875 C   0  0  0  0  0  0
  -20.8992   23.0383  -13.1014 C   0  0  0  0  0  0
  -22.4064   23.1564  -13.1151 C   0  0  0  0  0  0
  -22.8401   24.6867  -12.1490 C   0  0  0  0  0  0
  -22.6374   24.4401  -10.1908 C   0  0  0  0  0  0
  -20.8380   24.4070  -10.8044 C   0  0  0  0  0  0
  -23.4666   22.4987   -9.3979 C   0  0  0  0  0  0
  -23.0435   21.5129  -12.6206 C   0  0  0  0  0  0
  1  2  2  0  0  0
  2  3  1  0  0  0
  3  4  1  0  0  0
  3  7  1  0  0  0
  4  5  1  0  0  0
  5  6  1  0  0  0
  6  7  2  0  0  0
  7  8  1  0  0  0
  8  9  1  0  0  0
  9 10  1  0  0  0
 10 11  2  0  0  0
 10 15  1  0  0  0
 11 12  1  0  0  0
 12 13  2  0  0  0
 13 14  1  0  0  0
 14 15  2  0  0  0
 16  2  1  0  0  0
 16 17  1  0  0  0
 16 24  1  0  0  0
 16 25  1  0  0  0
 17 18  1  0  0  0
 18 19  1  0  0  0
 18 23  1  0  0  0
 19 20  1  0  0  0
 20 21  1  0  0  0
 20 25  1  0  0  0
 21 22  1  0  0  0
 22 23  1  0  0  0
 22 24  1  0  0  0
M  END
>  <CHROM.0>
-178.55882726,-169.07456633,73.09893402,63.54375943,168.28876956,-179.10473047
-38.00675065,-160.86596707

>  <CHROM.1>
-124.48756498,163.22392329,-30.26707058,145.88096181,-21.75648881,20.34392270
-12.60682347,2.59706073,0.79253831,0.32812852

>  <Name>
F0630-1662

>  <RI>
2.24157e+07

>  <Rbt.Current_Directory>
/home/adria/Escritorio/rDock_CMTR_LC/2pxcA_model/inputs_sah

>  <Rbt.Executable>
rbdock ($Id: //depot/dev/client3/rdock/2013.1/src/exe/rbdock.cxx#4 $)

>  <Rbt.Library>
libRbt.so (2013.1, Build901 2013/11/27)

>  <Rbt.Parameter_File>
/home/adria/Escritorio/rDock_2013.1_src/data/scripts/dock.prm

>  <Rbt.Receptor>
sah_rdock.prm

>  <SCORE>
-279.127

>  <SCORE.INTER>
-9.19146

>  <SCORE.INTER.CONST>
1

>  <SCORE.INTER.POLAR>
0

>  <SCORE.INTER.REPUL>
0

>  <SCORE.INTER.ROT>
4

>  <SCORE.INTER.VDW>
-18.5915

>  <SCORE.INTER.norm>
-0.367658

>  <SCORE.INTRA>
-268.646

>  <SCORE.INTRA.DIHEDRAL>
-0.368483

>  <SCORE.INTRA.DIHEDRAL.0>
5.11813

>  <SCORE.INTRA.POLAR>
0

>  <SCORE.INTRA.POLAR.0>
0

>  <SCORE.INTRA.REPUL>
0

>  <SCORE.INTRA.REPUL.0>
0

>  <SCORE.INTRA.VDW>
-268.462

>  <SCORE.INTRA.VDW.0>
267.927

>  <SCORE.INTRA.norm>
-10.7458

>  <SCORE.RESTR>
0

>  <SCORE.RESTR.CAVITY>
0

>  <SCORE.RESTR.norm>
0

>  <SCORE.SYSTEM>
-1.28927

>  <SCORE.SYSTEM.CONST>
0

>  <SCORE.SYSTEM.DIHEDRAL>
3.29338

>  <SCORE.SYSTEM.POLAR>
-3.61584

>  <SCORE.SYSTEM.VDW>
9.35789

>  <SCORE.SYSTEM.norm>
-0.0515708

>  <SCORE.heavy>
25

>  <SCORE.norm>
-11.1651

$$$$
F0630-1662
  rDOCK(R)          3D
libRbt.so/2013.1/901 2013/11/27
 25 29  0  0  0  0  0  0  0  0999 V2000
  -22.8837   25.8552   -9.1945 O   0  0  0  0  0  0
  -22.5193   25.0637  -10.0709 C   0  0  0  0  0  0
  -21.1177   24.9407  -10.4629 N   0  0  0  0  0  0
  -20.3196   25.8930   -9.7438 C   0  0  0  0  0  0
  -18.8817   25.5991  -10.0803 C   0  0  0  0  0  0
  -18.9041   24.5644  -11.1154 N   0  0  0  0  0  0
  -20.1421   24.2047  -11.2531 C   0  0  0  0  0  0
  -20.4303   23.0265  -12.4990 S   0  0  0  0  0  0
  -20.0524   21.3648  -11.8046 C   0  0  0  0  0  0
  -20.1231   20.2635  -12.8019 C   0  0  0  0  0  0
  -18.8148   19.4511  -13.4086 C   0  0  0  0  0  0
  -18.7468   18.0044  -14.1440 N   0  0  0  0  0  0
  -19.9446   17.1364  -14.3182 C   0  0  0  0  0  0
  -21.4284   17.6013  -13.7314 C   0  0  0  0  0  0
  -21.6174   19.3770  -12.8842 C   0  0  0  0  0  0
  -23.4775   24.0054  -10.5128 C   0  0  0  0  0  0
  -23.2619   22.3192  -10.2063 C   0  0  0  0  0  0
  -24.6463   21.2398  -10.9619 C   0  0  0  0  0  0
  -25.8799   21.4357  -10.1332 C   0  0  0  0  0  0
  -26.2990   22.8832  -10.2555 C   0  0  0  0  0  0
  -26.7973   23.1563  -12.0276 C   0  0  0  0  0  0
  -25.2417   23.2534  -13.2552 C   0  0  0  0  0  0
  -25.2474   21.4254  -12.7319 C   0  0  0  0  0  0
  -23.5280   24.5109  -12.5019 C   0  0  0  0  0  0
  -24.9551   23.8617   -9.4888 C   0  0  0  0  0  0
  1  2  2  0  0  0
  2  3  1  0  0  0
  3  4  1  0  0  0
  3  7  1  0  0  0
  4  5  1  0  0  0
  5  6  1  0  0  0
  6  7  2  0  0  0
  7  8  1  0  0  0
  8  9  1  0  0  0
  9 10  1  0  0  0
 10 11  2  0  0  0
 10 15  1  0  0  0
 11 12  1  0  0  0
 12 13  2  0  0  0
 13 14  1  0  0  0
 14 15  2  0  0  0
 16  2  1  0  0  0
 16 17  1  0  0  0
 16 24  1  0  0  0
 16 25  1  0  0  0
 17 18  1  0  0  0
 18 19  1  0  0  0
 18 23  1  0  0  0
 19 20  1  0  0  0
 20 21  1  0  0  0
 20 25  1  0  0  0
 21 22  1  0  0  0
 22 23  1  0  0  0
 22 24  1  0  0  0
M  END
>  <CHROM.0>
-173.75473629,-76.08850785,-8.64299000,148.05651071,168.89822657,60.84800433
-36.55294809,-166.06537922

>  <CHROM.1>
-105.43604245,-174.18810928,108.27865185,-111.80142877,-22.13178189,22.49081461
-11.60433642,-2.12164941,-0.09932244,-2.67692235

>  <Name>
F0630-1662

>  <RI>
2.24157e+07

>  <Rbt.Current_Directory>
/home/adria/Escritorio/rDock_CMTR_LC/2pxcA_model/inputs_sah

>  <Rbt.Executable>
rbdock ($Id: //depot/dev/client3/rdock/2013.1/src/exe/rbdock.cxx#4 $)

>  <Rbt.Library>
libRbt.so (2013.1, Build901 2013/11/27)

>  <Rbt.Parameter_File>
/home/adria/Escritorio/rDock_2013.1_src/data/scripts/dock.prm

>  <Rbt.Receptor>
sah_rdock.prm

>  <SCORE>
-280.224

>  <SCORE.INTER>
-10.6791

>  <SCORE.INTER.CONST>
1

>  <SCORE.INTER.POLAR>
0

>  <SCORE.INTER.REPUL>
0.336144

>  <SCORE.INTER.ROT>
4

>  <SCORE.INTER.VDW>
-21.7598

>  <SCORE.INTER.norm>
-0.427163

>  <SCORE.INTRA>
-270.79

>  <SCORE.INTRA.DIHEDRAL>
-0.653649

>  <SCORE.INTRA.DIHEDRAL.0>
5.11813

>  <SCORE.INTRA.POLAR>
0

>  <SCORE.INTRA.POLAR.0>
0

>  <SCORE.INTRA.REPUL>
0

>  <SCORE.INTRA.REPUL.0>
0

>  <SCORE.INTRA.VDW>
-270.463

>  <SCORE.INTRA.VDW.0>
267.927

>  <SCORE.INTRA.norm>
-10.8316

>  <SCORE.RESTR>
0

>  <SCORE.RESTR.CAVITY>
0

>  <SCORE.RESTR.norm>
0

>  <SCORE.SYSTEM>
1.24528

>  <SCORE.SYSTEM.CONST>
0

>  <SCORE.SYSTEM.DIHEDRAL>
10.8447

>  <SCORE.SYSTEM.POLAR>
-4.55826

>  <SCORE.SYSTEM.REPUL>
0.0435783

>  <SCORE.SYSTEM.VDW>
11.1031

>  <SCORE.SYSTEM.norm>
0.0498111

>  <SCORE.heavy>
25

>  <SCORE.norm>
-11.209

$$$$
F0630-1662
  rDOCK(R)          3D
libRbt.so/2013.1/901 2013/11/27
 25 29  0  0  0  0  0  0  0  0999 V2000
  -25.0442   23.0080   -8.1224 O   0  0  0  0  0  0
  -24.2578   22.5696   -8.9691 C   0  0  0  0  0  0
  -24.0328   21.1369   -9.1423 N   0  0  0  0  0  0
  -24.7850   20.3987   -8.1675 C   0  0  0  0  0  0
  -24.6283   18.9406   -8.5089 C   0  0  0  0  0  0
  -23.6541   18.8753   -9.5994 N   0  0  0  0  0  0
  -23.3976   20.0995   -9.9411 C   0  0  0  0  0  0
  -22.1920   20.2785  -11.1811 S   0  0  0  0  0  0
  -21.4600   18.6210  -11.5021 C   0  0  0  0  0  0
  -20.3400   18.6349  -12.4809 C   0  0  0  0  0  0
  -20.2378   17.6612  -13.8156 C   0  0  0  0  0  0
  -19.3392   17.8379  -15.1572 N   0  0  0  0  0  0
  -18.4759   19.0285  -15.3929 C   0  0  0  0  0  0
  -18.4126   20.2691  -14.2889 C   0  0  0  0  0  0
  -19.4196   20.1064  -12.5961 C   0  0  0  0  0  0
  -23.7682   23.5005  -10.0308 C   0  0  0  0  0  0
  -23.3219   25.1441   -9.7426 C   0  0  0  0  0  0
  -22.7962   26.0650  -11.3326 C   0  0  0  0  0  0
  -21.4415   25.5579  -11.7257 C   0  0  0  0  0  0
  -21.5722   24.0892  -12.0600 C   0  0  0  0  0  0
  -22.6469   23.9705  -13.5746 C   0  0  0  0  0  0
  -24.5640   24.2977  -13.1819 C   0  0  0  0  0  0
  -23.7867   26.0143  -12.9279 C   0  0  0  0  0  0
  -25.3349   23.2584  -11.3351 C   0  0  0  0  0  0
  -22.0431   23.2585  -10.4980 C   0  0  0  0  0  0
  1  2  2  0  0  0
  2  3  1  0  0  0
  3  4  1  0  0  0
  3  7  1  0  0  0
  4  5  1  0  0  0
  5  6  1  0  0  0
  6  7  2  0  0  0
  7  8  1  0  0  0
  8  9  1  0  0  0
  9 10  1  0  0  0
 10 11  2  0  0  0
 10 15  1  0  0  0
 11 12  1  0  0  0
 12 13  2  0  0  0
 13 14  1  0  0  0
 14 15  2  0  0  0
 16  2  1  0  0  0
 16 17  1  0  0  0
 16 24  1  0  0  0
 16 25  1  0  0  0
 17 18  1  0  0  0
 18 19  1  0  0  0
 18 23  1  0  0  0
 19 20  1  0  0  0
 20 21  1  0  0  0
 20 25  1  0  0  0
 21 22  1  0  0  0
 22 23  1  0  0  0
 22 24  1  0  0  0
M  END
>  <CHROM.0>
-59.80658194,-69.24267532,72.12495356,62.29588466,167.97823343,53.52058644
-37.97481220,-162.65903496

>  <CHROM.1>
165.00404107,-175.99018206,-128.13778868,40.84226325,-22.46154705,21.65278529
-11.36876669,2.59813576,0.84219043,-0.29426192

>  <Name>
F0630-1662

>  <RI>
2.24157e+07

>  <Rbt.Current_Directory>
/home/adria/Escritorio/rDock_CMTR_LC/2pxcA_model/inputs_sah

>  <Rbt.Executable>
rbdock ($Id: //depot/dev/client3/rdock/2013.1/src/exe/rbdock.cxx#4 $)

>  <Rbt.Library>
libRbt.so (2013.1, Build901 2013/11/27)

>  <Rbt.Parameter_File>
/home/adria/Escritorio/rDock_2013.1_src/data/scripts/dock.prm

>  <Rbt.Receptor>
sah_rdock.prm

>  <SCORE>
-283.776

>  <SCORE.INTER>
-10.8871

>  <SCORE.INTER.CONST>
1

>  <SCORE.INTER.POLAR>
-0.449014

>  <SCORE.INTER.REPUL>
0

>  <SCORE.INTER.ROT>
4

>  <SCORE.INTER.VDW>
-18.7605

>  <SCORE.INTER.norm>
-0.435485

>  <SCORE.INTRA>
-270.106

>  <SCORE.INTRA.DIHEDRAL>
-2.00351

>  <SCORE.INTRA.DIHEDRAL.0>
5.11813

>  <SCORE.INTRA.POLAR>
0

>  <SCORE.INTRA.POLAR.0>
0

>  <SCORE.INTRA.REPUL>
0

>  <SCORE.INTRA.REPUL.0>
0

>  <SCORE.INTRA.VDW>
-269.104

>  <SCORE.INTRA.VDW.0>
267.927

>  <SCORE.INTRA.norm>
-10.8042

>  <SCORE.RESTR>
0

>  <SCORE.RESTR.CAVITY>
0

>  <SCORE.RESTR.norm>
0

>  <SCORE.SYSTEM>
-2.78302

>  <SCORE.SYSTEM.CONST>
0

>  <SCORE.SYSTEM.DIHEDRAL>
3.0792

>  <SCORE.SYSTEM.POLAR>
-3.89318

>  <SCORE.SYSTEM.REPUL>
0.0311473

>  <SCORE.SYSTEM.VDW>
8.75845

>  <SCORE.SYSTEM.norm>
-0.111321

>  <SCORE.heavy>
25

>  <SCORE.norm>
-11.351

$$$$
F0630-1662
  rDOCK(R)          3D
libRbt.so/2013.1/901 2013/11/27
 25 29  0  0  0  0  0  0  0  0999 V2000
  -24.2360   25.1568   -9.4155 O   0  0  0  0  0  0
  -23.5814   24.2451   -9.9330 C   0  0  0  0  0  0
  -22.1907   24.4303  -10.3391 N   0  0  0  0  0  0
  -21.7867   25.7884  -10.1080 C   0  0  0  0  0  0
  -20.3110   25.8595  -10.3985 C   0  0  0  0  0  0
  -19.9342   24.5527  -10.9396 N   0  0  0  0  0  0
  -20.9815   23.7947  -10.8407 C   0  0  0  0  0  0
  -20.7964   22.1968  -11.5008 S   0  0  0  0  0  0
  -20.5355   22.3608  -13.3150 C   0  0  0  0  0  0
  -19.4751   21.4685  -13.8554 C   0  0  0  0  0  0
  -19.2242   19.9025  -13.3816 C   0  0  0  0  0  0
  -18.4256   18.7087  -14.1403 N   0  0  0  0  0  0
  -17.8282   18.8779  -15.4942 C   0  0  0  0  0  0
  -17.9787   20.3119  -16.3206 C   0  0  0  0  0  0
  -18.8744   21.8406  -15.4448 C   0  0  0  0  0  0
  -24.1216   22.8537   -9.8575 C   0  0  0  0  0  0
  -23.3871   21.5811   -8.9493 C   0  0  0  0  0  0
  -24.3073   19.9148   -9.1196 C   0  0  0  0  0  0
  -25.5778   20.0135   -8.3304 C   0  0  0  0  0  0
  -26.4366   21.0862   -8.9611 C   0  0  0  0  0  0
  -26.9068   20.4785  -10.6561 C   0  0  0  0  0  0
  -25.4068   20.5812  -11.9507 C   0  0  0  0  0  0
  -24.8463   19.1995  -10.7709 C   0  0  0  0  0  0
  -24.2331   22.5054  -11.8775 C   0  0  0  0  0  0
  -25.5225   22.6567   -8.7388 C   0  0  0  0  0  0
  1  2  2  0  0  0
  2  3  1  0  0  0
  3  4  1  0  0  0
  3  7  1  0  0  0
  4  5  1  0  0  0
  5  6  1  0  0  0
  6  7  2  0  0  0
  7  8  1  0  0  0
  8  9  1  0  0  0
  9 10  1  0  0  0
 10 11  2  0  0  0
 10 15  1  0  0  0
 11 12  1  0  0  0
 12 13  2  0  0  0
 13 14  1  0  0  0
 14 15  2  0  0  0
 16  2  1  0  0  0
 16 17  1  0  0  0
 16 24  1  0  0  0
 16 25  1  0  0  0
 17 18  1  0  0  0
 18 19  1  0  0  0
 18 23  1  0  0  0
 19 20  1  0  0  0
 20 21  1  0  0  0
 20 25  1  0  0  0
 21 22  1  0  0  0
 22 23  1  0  0  0
 22 24  1  0  0  0
M  END
>  <CHROM.0>
177.14508726,-70.68122744,74.76333906,63.30265414,168.24240179,-59.58762278
-37.42862578,-163.18164522

>  <CHROM.1>
107.78449913,137.40971400,39.70531912,-112.85996444,-22.23441513,22.04966426
-11.35526939,-2.72096892,-0.55763732,-2.70547027

>  <Name>
F0630-1662

>  <RI>
2.24157e+07

>  <Rbt.Current_Directory>
/home/adria/Escritorio/rDock_CMTR_LC/2pxcA_model/inputs_sah

>  <Rbt.Executable>
rbdock ($Id: //depot/dev/client3/rdock/2013.1/src/exe/rbdock.cxx#4 $)

>  <Rbt.Library>
libRbt.so (2013.1, Build901 2013/11/27)

>  <Rbt.Parameter_File>
/home/adria/Escritorio/rDock_2013.1_src/data/scripts/dock.prm

>  <Rbt.Receptor>
sah_rdock.prm

>  <SCORE>
-281.007

>  <SCORE.INTER>
-9.39228

>  <SCORE.INTER.CONST>
1

>  <SCORE.INTER.POLAR>
-0.500566

>  <SCORE.INTER.REPUL>
0.669394

>  <SCORE.INTER.ROT>
4

>  <SCORE.INTER.VDW>
-20.4373

>  <SCORE.INTER.norm>
-0.375691

>  <SCORE.INTRA>
-269.177

>  <SCORE.INTRA.DIHEDRAL>
1.68611

>  <SCORE.INTRA.DIHEDRAL.0>
5.11813

>  <SCORE.INTRA.POLAR>
0

>  <SCORE.INTRA.POLAR.0>
0

>  <SCORE.INTRA.REPUL>
0

>  <SCORE.INTRA.REPUL.0>
0

>  <SCORE.INTRA.VDW>
-270.02

>  <SCORE.INTRA.VDW.0>
267.927

>  <SCORE.INTRA.norm>
-10.7671

>  <SCORE.RESTR>
0

>  <SCORE.RESTR.CAVITY>
0

>  <SCORE.RESTR.norm>
0

>  <SCORE.SYSTEM>
-2.4379

>  <SCORE.SYSTEM.CONST>
0

>  <SCORE.SYSTEM.DIHEDRAL>
3.3346

>  <SCORE.SYSTEM.POLAR>
-3.90717

>  <SCORE.SYSTEM.REPUL>
0.0341345

>  <SCORE.SYSTEM.VDW>
9.00852

>  <SCORE.SYSTEM.norm>
-0.097516

>  <SCORE.heavy>
25

>  <SCORE.norm>
-11.2403

$$$$
F0630-1662
  rDOCK(R)          3D
libRbt.so/2013.1/901 2013/11/27
 25 29  0  0  0  0  0  0  0  0999 V2000
  -23.5207   19.4170   -9.9072 O   0  0  0  0  0  0
  -22.9990   19.7653  -10.9721 C   0  0  0  0  0  0
  -22.8098   18.8309  -12.0786 N   0  0  0  0  0  0
  -23.2440   17.5176  -11.6943 C   0  0  0  0  0  0
  -23.1675   16.6553  -12.9262 C   0  0  0  0  0  0
  -22.5404   17.4748  -13.9643 N   0  0  0  0  0  0
  -22.4102   18.6656  -13.4682 C   0  0  0  0  0  0
  -21.6074   19.8087  -14.5036 S   0  0  0  0  0  0
  -21.3786   19.0180  -16.1494 C   0  0  0  0  0  0
  -19.9550   18.8624  -16.5517 C   0  0  0  0  0  0
  -19.0894   19.9765  -17.4172 C   0  0  0  0  0  0
  -17.4807   20.1483  -17.5633 N   0  0  0  0  0  0
  -16.5125   19.2912  -16.8241 C   0  0  0  0  0  0
  -17.0408   18.1174  -15.7729 C   0  0  0  0  0  0
  -18.9814   17.7924  -15.5860 C   0  0  0  0  0  0
  -22.8443   21.2272  -11.2406 C   0  0  0  0  0  0
  -23.7223   22.0834  -12.4571 C   0  0  0  0  0  0
  -23.2375   23.9286  -12.5688 C   0  0  0  0  0  0
  -23.8200   24.6256  -11.3764 C   0  0  0  0  0  0
  -23.1740   24.0486  -10.1372 C   0  0  0  0  0  0
  -21.3724   24.5112  -10.1986 C   0  0  0  0  0  0
  -20.3509   23.4414  -11.5208 C   0  0  0  0  0  0
  -21.4569   24.5245  -12.6249 C   0  0  0  0  0  0
  -20.8073   21.2332  -11.4959 C   0  0  0  0  0  0
  -23.6992   22.2963  -10.0664 C   0  0  0  0  0  0
  1  2  2  0  0  0
  2  3  1  0  0  0
  3  4  1  0  0  0
  3  7  1  0  0  0
  4  5  1  0  0  0
  5  6  1  0  0  0
  6  7  2  0  0  0
  7  8  1  0  0  0
  8  9  1  0  0  0
  9 10  1  0  0  0
 10 11  2  0  0  0
 10 15  1  0  0  0
 11 12  1  0  0  0
 12 13  2  0  0  0
 13 14  1  0  0  0
 14 15  2  0  0  0
 16  2  1  0  0  0
 16 17  1  0  0  0
 16 24  1  0  0  0
 16 25  1  0  0  0
 17 18  1  0  0  0
 18 19  1  0  0  0
 18 23  1  0  0  0
 19 20  1  0  0  0
 20 21  1  0  0  0
 20 25  1  0  0  0
 21 22  1  0  0  0
 22 23  1  0  0  0
 22 24  1  0  0  0
M  END
>  <CHROM.0>
39.42659479,68.34118196,-167.52162778,63.20857544,-30.35123298,-177.28789626
-36.01346140,-161.63737002

>  <CHROM.1>
-179.79099631,-118.08188617,-90.87755999,-111.43947739,-21.52761785,20.50021376
-13.19292538,2.37062577,0.76513316,0.30771793

>  <Name>
F0630-1662

>  <RI>
2.24157e+07

>  <Rbt.Current_Directory>
/home/adria/Escritorio/rDock_CMTR_LC/2pxcA_model/inputs_sah

>  <Rbt.Executable>
rbdock ($Id: //depot/dev/client3/rdock/2013.1/src/exe/rbdock.cxx#4 $)

>  <Rbt.Library>
libRbt.so (2013.1, Build901 2013/11/27)

>  <Rbt.Parameter_File>
/home/adria/Escritorio/rDock_2013.1_src/data/scripts/dock.prm

>  <Rbt.Receptor>
sah_rdock.prm

>  <SCORE>
-284.461

>  <SCORE.INTER>
-11.2285

>  <SCORE.INTER.CONST>
1

>  <SCORE.INTER.POLAR>
-0.848528

>  <SCORE.INTER.REPUL>
0

>  <SCORE.INTER.ROT>
4

>  <SCORE.INTER.VDW>
-17.7435

>  <SCORE.INTER.norm>
-0.449138

>  <SCORE.INTRA>
-270.492

>  <SCORE.INTRA.DIHEDRAL>
-1.36819

>  <SCORE.INTRA.DIHEDRAL.0>
5.11813

>  <SCORE.INTRA.POLAR>
0

>  <SCORE.INTRA.POLAR.0>
0

>  <SCORE.INTRA.REPUL>
0

>  <SCORE.INTRA.REPUL.0>
0

>  <SCORE.INTRA.VDW>
-269.808

>  <SCORE.INTRA.VDW.0>
267.927

>  <SCORE.INTRA.norm>
-10.8197

>  <SCORE.RESTR>
0

>  <SCORE.RESTR.CAVITY>
0

>  <SCORE.RESTR.norm>
0

>  <SCORE.SYSTEM>
-2.74143

>  <SCORE.SYSTEM.CONST>
0

>  <SCORE.SYSTEM.DIHEDRAL>
7.92479

>  <SCORE.SYSTEM.POLAR>
-3.61059

>  <SCORE.SYSTEM.REPUL>
0.125053

>  <SCORE.SYSTEM.VDW>
4.94691

>  <SCORE.SYSTEM.norm>
-0.109657

>  <SCORE.heavy>
25

>  <SCORE.norm>
-11.3785

$$$$
F0630-1662
  rDOCK(R)          3D
libRbt.so/2013.1/901 2013/11/27
 25 29  0  0  0  0  0  0  0  0999 V2000
  -24.6900   20.0872   -9.3421 O   0  0  0  0  0  0
  -23.9023   20.1705  -10.2908 C   0  0  0  0  0  0
  -23.6143   19.0288  -11.1550 N   0  0  0  0  0  0
  -24.3099   17.8653  -10.6825 C   0  0  0  0  0  0
  -24.0925   16.7820  -11.7054 C   0  0  0  0  0  0
  -23.1400   17.3194  -12.6783 N   0  0  0  0  0  0
  -22.9485   18.5621  -12.3621 C   0  0  0  0  0  0
  -21.7797   19.3974  -13.3415 S   0  0  0  0  0  0
  -20.8047   18.1350  -14.2591 C   0  0  0  0  0  0
  -19.7485   18.7079  -15.1359 C   0  0  0  0  0  0
  -19.4016   20.3209  -15.2689 C   0  0  0  0  0  0
  -18.0596   21.0467  -15.8263 N   0  0  0  0  0  0
  -16.8570   20.2832  -16.2615 C   0  0  0  0  0  0
  -16.8189   18.6244  -16.1678 C   0  0  0  0  0  0
  -18.4330   17.6548  -15.5670 C   0  0  0  0  0  0
  -23.4799   21.5305  -10.7439 C   0  0  0  0  0  0
  -23.3240   22.8927   -9.6931 C   0  0  0  0  0  0
  -22.8208   24.4910  -10.6121 C   0  0  0  0  0  0
  -21.3753   24.3643  -10.9880 C   0  0  0  0  0  0
  -21.2444   23.2100  -11.9557 C   0  0  0  0  0  0
  -22.1582   23.6927  -13.5034 C   0  0  0  0  0  0
  -24.1286   23.6031  -13.2897 C   0  0  0  0  0  0
  -23.6557   25.0794  -12.1887 C   0  0  0  0  0  0
  -24.8757   21.7569  -12.2321 C   0  0  0  0  0  0
  -21.7056   21.7098  -11.0133 C   0  0  0  0  0  0
  1  2  2  0  0  0
  2  3  1  0  0  0
  3  4  1  0  0  0
  3  7  1  0  0  0
  4  5  1  0  0  0
  5  6  1  0  0  0
  6  7  2  0  0  0
  7  8  1  0  0  0
  8  9  1  0  0  0
  9 10  1  0  0  0
 10 11  2  0  0  0
 10 15  1  0  0  0
 11 12  1  0  0  0
 12 13  2  0  0  0
 13 14  1  0  0  0
 14 15  2  0  0  0
 16  2  1  0  0  0
 16 17  1  0  0  0
 16 24  1  0  0  0
 16 25  1  0  0  0
 17 18  1  0  0  0
 18 19  1  0  0  0
 18 23  1  0  0  0
 19 20  1  0  0  0
 20 21  1  0  0  0
 20 25  1  0  0  0
 21 22  1  0  0  0
 22 23  1  0  0  0
 22 24  1  0  0  0
M  END
>  <CHROM.0>
-58.93953500,-71.80798441,-46.98334100,64.56134580,-29.91842170,-177.22774970
-36.75285032,-161.14557659

>  <CHROM.1>
156.67016645,-179.44438736,2.19706135,31.69814708,-21.92874118,20.59646557
-12.64893295,2.66145804,0.68723385,0.12004432

>  <Name>
F0630-1662

>  <RI>
2.24157e+07

>  <Rbt.Current_Directory>
/home/adria/Escritorio/rDock_CMTR_LC/2pxcA_model/inputs_sah

>  <Rbt.Executable>
rbdock ($Id: //depot/dev/client3/rdock/2013.1/src/exe/rbdock.cxx#4 $)

>  <Rbt.Library>
libRbt.so (2013.1, Build901 2013/11/27)

>  <Rbt.Parameter_File>
/home/adria/Escritorio/rDock_2013.1_src/data/scripts/dock.prm

>  <Rbt.Receptor>
sah_rdock.prm

>  <SCORE>
-284.614

>  <SCORE.INTER>
-5.84044

>  <SCORE.INTER.CONST>
1

>  <SCORE.INTER.POLAR>
0

>  <SCORE.INTER.REPUL>
0

>  <SCORE.INTER.ROT>
4

>  <SCORE.INTER.VDW>
-15.2404

>  <SCORE.INTER.norm>
-0.233618

>  <SCORE.INTRA>
-271.169

>  <SCORE.INTRA.DIHEDRAL>
-2.60827

>  <SCORE.INTRA.DIHEDRAL.0>
5.11813

>  <SCORE.INTRA.POLAR>
0

>  <SCORE.INTRA.POLAR.0>
0

>  <SCORE.INTRA.REPUL>
0

>  <SCORE.INTRA.REPUL.0>
0

>  <SCORE.INTRA.VDW>
-269.865

>  <SCORE.INTRA.VDW.0>
267.927

>  <SCORE.INTRA.norm>
-10.8468

>  <SCORE.RESTR>
0

>  <SCORE.RESTR.CAVITY>
0

>  <SCORE.RESTR.norm>
0

>  <SCORE.SYSTEM>
-7.60487

>  <SCORE.SYSTEM.CONST>
0

>  <SCORE.SYSTEM.DIHEDRAL>
6.48885

>  <SCORE.SYSTEM.POLAR>
-4.019

>  <SCORE.SYSTEM.REPUL>
0.0363377

>  <SCORE.SYSTEM.VDW>
2.63363

>  <SCORE.SYSTEM.norm>
-0.304195

>  <SCORE.heavy>
25

>  <SCORE.norm>
-11.3846

$$$$
F0630-1662
  rDOCK(R)          3D
libRbt.so/2013.1/901 2013/11/27
 25 29  0  0  0  0  0  0  0  0999 V2000
  -25.2755   24.9820   -9.5529 O   0  0  0  0  0  0
  -24.5143   24.4227  -10.3499 C   0  0  0  0  0  0
  -23.0853   24.7220  -10.3891 N   0  0  0  0  0  0
  -22.7736   25.7616   -9.4494 C   0  0  0  0  0  0
  -21.2744   25.9004   -9.4342 C   0  0  0  0  0  0
  -20.7689   25.0243  -10.4923 N   0  0  0  0  0  0
  -21.7895   24.3678  -10.9490 C   0  0  0  0  0  0
  -21.4437   23.3085  -12.2837 S   0  0  0  0  0  0
  -20.1981   22.0766  -11.7204 C   0  0  0  0  0  0
  -19.8128   21.0878  -12.7626 C   0  0  0  0  0  0
  -20.1869   19.4759  -12.7218 C   0  0  0  0  0  0
  -20.2142   18.3905  -13.9300 N   0  0  0  0  0  0
  -19.9443   18.7613  -15.3471 C   0  0  0  0  0  0
  -19.6265   20.3363  -15.7717 C   0  0  0  0  0  0
  -19.5048   21.7111  -14.3570 C   0  0  0  0  0  0
  -25.0068   23.2071  -11.0662 C   0  0  0  0  0  0
  -26.6734   22.7712  -11.1943 C   0  0  0  0  0  0
  -26.9453   21.1260  -12.1279 C   0  0  0  0  0  0
  -26.6950   21.3816  -13.5835 C   0  0  0  0  0  0
  -25.2440   21.7744  -13.7454 C   0  0  0  0  0  0
  -24.2242   20.2885  -13.2812 C   0  0  0  0  0  0
  -24.1705   19.9771  -11.3225 C   0  0  0  0  0  0
  -25.9729   19.5608  -11.7624 C   0  0  0  0  0  0
  -23.8389   21.8330  -10.0853 C   0  0  0  0  0  0
  -25.0531   23.3665  -12.8621 C   0  0  0  0  0  0
  1  2  2  0  0  0
  2  3  1  0  0  0
  3  4  1  0  0  0
  3  7  1  0  0  0
  4  5  1  0  0  0
  5  6  1  0  0  0
  6  7  2  0  0  0
  7  8  1  0  0  0
  8  9  1  0  0  0
  9 10  1  0  0  0
 10 11  2  0  0  0
 10 15  1  0  0  0
 11 12  1  0  0  0
 12 13  2  0  0  0
 13 14  1  0  0  0
 14 15  2  0  0  0
 16  2  1  0  0  0
 16 17  1  0  0  0
 16 24  1  0  0  0
 16 25  1  0  0  0
 17 18  1  0  0  0
 18 19  1  0  0  0
 18 23  1  0  0  0
 19 20  1  0  0  0
 20 21  1  0  0  0
 20 25  1  0  0  0
 21 22  1  0  0  0
 22 23  1  0  0  0
 22 24  1  0  0  0
M  END
>  <CHROM.0>
-58.00557084,66.27300792,72.15888560,63.40814067,168.37150116,58.02039695
-36.90593496,-159.23743689

>  <CHROM.1>
-127.76590215,179.42136627,-111.46908443,17.28243702,-22.92407421,22.30624852
-12.00624639,-2.23720163,-0.13700375,-2.53195563

>  <Name>
F0630-1662

>  <RI>
2.24157e+07

>  <Rbt.Current_Directory>
/home/adria/Escritorio/rDock_CMTR_LC/2pxcA_model/inputs_sah

>  <Rbt.Executable>
rbdock ($Id: //depot/dev/client3/rdock/2013.1/src/exe/rbdock.cxx#4 $)

>  <Rbt.Library>
libRbt.so (2013.1, Build901 2013/11/27)

>  <Rbt.Parameter_File>
/home/adria/Escritorio/rDock_2013.1_src/data/scripts/dock.prm

>  <Rbt.Receptor>
sah_rdock.prm

>  <SCORE>
-282.031

>  <SCORE.INTER>
-8.03107

>  <SCORE.INTER.CONST>
1

>  <SCORE.INTER.POLAR>
-0.611259

>  <SCORE.INTER.REPUL>
0.147975

>  <SCORE.INTER.ROT>
4

>  <SCORE.INTER.VDW>
-16.0927

>  <SCORE.INTER.norm>
-0.321243

>  <SCORE.INTRA>
-271.536

>  <SCORE.INTRA.DIHEDRAL>
-1.30862

>  <SCORE.INTRA.DIHEDRAL.0>
5.11813

>  <SCORE.INTRA.POLAR>
0

>  <SCORE.INTRA.POLAR.0>
0

>  <SCORE.INTRA.REPUL>
0

>  <SCORE.INTRA.REPUL.0>
0

>  <SCORE.INTRA.VDW>
-270.881

>  <SCORE.INTRA.VDW.0>
267.927

>  <SCORE.INTRA.norm>
-10.8614

>  <SCORE.RESTR>
0

>  <SCORE.RESTR.CAVITY>
0

>  <SCORE.RESTR.norm>
0

>  <SCORE.SYSTEM>
-2.4645

>  <SCORE.SYSTEM.CONST>
0

>  <SCORE.SYSTEM.DIHEDRAL>
3.04508

>  <SCORE.SYSTEM.POLAR>
-3.66356

>  <SCORE.SYSTEM.VDW>
8.46906

>  <SCORE.SYSTEM.norm>
-0.0985802

>  <SCORE.heavy>
25

>  <SCORE.norm>
-11.2812

$$$$
F0630-1662
  rDOCK(R)          3D
libRbt.so/2013.1/901 2013/11/27
 25 29  0  0  0  0  0  0  0  0999 V2000
  -24.0442   25.3751   -9.4295 O   0  0  0  0  0  0
  -23.4886   24.6675  -10.2769 C   0  0  0  0  0  0
  -22.0423   24.6992  -10.4780 N   0  0  0  0  0  0
  -21.4472   25.6858   -9.6216 C   0  0  0  0  0  0
  -19.9551   25.5481   -9.7692 C   0  0  0  0  0  0
  -19.7352   24.5698  -10.8355 N   0  0  0  0  0  0
  -20.9012   24.1008  -11.1545 C   0  0  0  0  0  0
  -20.9008   22.9652  -12.4712 S   0  0  0  0  0  0
  -19.9423   21.4861  -11.9424 C   0  0  0  0  0  0
  -19.9416   20.3800  -12.9369 C   0  0  0  0  0  0
  -18.6093   19.8552  -13.7673 C   0  0  0  0  0  0
  -18.3585   18.4450  -14.5335 N   0  0  0  0  0  0
  -19.3569   17.3398  -14.5259 C   0  0  0  0  0  0
  -20.7877   17.4875  -13.6933 C   0  0  0  0  0  0
  -21.2064   19.1950  -12.7903 C   0  0  0  0  0  0
  -24.2675   23.5463  -10.8848 C   0  0  0  0  0  0
  -25.9897   23.4253  -10.8281 C   0  0  0  0  0  0
  -26.6542   21.8352  -11.6541 C   0  0  0  0  0  0
  -26.5160   22.0006  -13.1374 C   0  0  0  0  0  0
  -25.0429   22.1117  -13.4592 C   0  0  0  0  0  0
  -24.2685   20.4747  -13.0302 C   0  0  0  0  0  0
  -24.0667   20.2113  -11.0741 C   0  0  0  0  0  0
  -25.9509   20.1266  -11.3148 C   0  0  0  0  0  0
  -23.2735   22.0054   -9.9617 C   0  0  0  0  0  0
  -24.4726   23.6634  -12.6728 C   0  0  0  0  0  0
  1  2  2  0  0  0
  2  3  1  0  0  0
  3  4  1  0  0  0
  3  7  1  0  0  0
  4  5  1  0  0  0
  5  6  1  0  0  0
  6  7  2  0  0  0
  7  8  1  0  0  0
  8  9  1  0  0  0
  9 10  1  0  0  0
 10 11  2  0  0  0
 10 15  1  0  0  0
 11 12  1  0  0  0
 12 13  2  0  0  0
 13 14  1  0  0  0
 14 15  2  0  0  0
 16  2  1  0  0  0
 16 17  1  0  0  0
 16 24  1  0  0  0
 16 25  1  0  0  0
 17 18  1  0  0  0
 18 19  1  0  0  0
 18 23  1  0  0  0
 19 20  1  0  0  0
 20 21  1  0  0  0
 20 25  1  0  0  0
 21 22  1  0  0  0
 22 23  1  0  0  0
 22 24  1  0  0  0
M  END
>  <CHROM.0>
41.15270071,-73.00428390,-8.07440545,65.02867006,168.67088632,-62.36513584
-156.18626005,-163.53559843

>  <CHROM.1>
-123.75038438,175.67009040,113.40936320,17.69904201,-22.39033895,22.13360818
-11.85723905,-2.18914840,-0.05701768,-2.64632812

>  <Name>
F0630-1662

>  <RI>
2.24157e+07

>  <Rbt.Current_Directory>
/home/adria/Escritorio/rDock_CMTR_LC/2pxcA_model/inputs_sah

>  <Rbt.Executable>
rbdock ($Id: //depot/dev/client3/rdock/2013.1/src/exe/rbdock.cxx#4 $)

>  <Rbt.Library>
libRbt.so (2013.1, Build901 2013/11/27)

>  <Rbt.Parameter_File>
/home/adria/Escritorio/rDock_2013.1_src/data/scripts/dock.prm

>  <Rbt.Receptor>
sah_rdock.prm

>  <SCORE>
-278.094

>  <SCORE.INTER>
-8.10336

>  <SCORE.INTER.CONST>
1

>  <SCORE.INTER.POLAR>
-0.335763

>  <SCORE.INTER.REPUL>
0.635622

>  <SCORE.INTER.ROT>
4

>  <SCORE.INTER.VDW>
-19.5399

>  <SCORE.INTER.norm>
-0.324134

>  <SCORE.INTRA>
-271.663

>  <SCORE.INTRA.DIHEDRAL>
-1.28524

>  <SCORE.INTRA.DIHEDRAL.0>
5.11813

>  <SCORE.INTRA.POLAR>
0

>  <SCORE.INTRA.POLAR.0>
0

>  <SCORE.INTRA.REPUL>
0

>  <SCORE.INTRA.REPUL.0>
0

>  <SCORE.INTRA.VDW>
-271.02

>  <SCORE.INTRA.VDW.0>
267.927

>  <SCORE.INTRA.norm>
-10.8665

>  <SCORE.RESTR>
0

>  <SCORE.RESTR.CAVITY>
0

>  <SCORE.RESTR.norm>
0

>  <SCORE.SYSTEM>
1.67163

>  <SCORE.SYSTEM.CONST>
0

>  <SCORE.SYSTEM.DIHEDRAL>
8.22507

>  <SCORE.SYSTEM.POLAR>
-4.53262

>  <SCORE.SYSTEM.REPUL>
0.157796

>  <SCORE.SYSTEM.VDW>
12.181

>  <SCORE.SYSTEM.norm>
0.0668651

>  <SCORE.heavy>
25

>  <SCORE.norm>
-11.1238

$$$$
