F3406-3354
  rDOCK(R)          3D
libRbt.so/2013.1/901 2013/11/27
 30 34  0  0  0  0  0  0  0  0999 V2000
  -18.8395   15.7376  -15.2849 C   0  0  0  0  0  0
  -18.0769   16.8710  -15.5996 O   0  0  0  0  0  0
  -18.6056   18.0387  -16.0765 C   0  0  0  0  0  0
  -19.3510   19.0673  -15.4535 C   0  0  0  0  0  0
  -19.4443   20.2762  -16.2095 C   0  0  0  0  0  0
  -18.9081   20.4471  -17.4956 C   0  0  0  0  0  0
  -18.2557   19.3970  -18.1032 C   0  0  0  0  0  0
  -18.1032   18.2160  -17.3915 C   0  0  0  0  0  0
  -19.9410   19.0389  -14.1901 N   0  0  0  0  0  0
  -19.8950   20.2469  -13.3416 C   0  0  0  0  0  0
  -20.5509   19.9608  -11.9725 C   0  0  0  0  0  0
  -21.9511   19.7479  -12.2338 N   0  0  0  0  0  0
  -22.1691   18.5437  -13.0648 C   0  0  0  0  0  0
  -20.8697   17.9872  -13.7216 C   0  0  0  0  0  0
  -22.9881   20.6602  -12.0477 C   0  0  0  0  0  0
  -24.1128   20.2259  -12.4317 O   0  0  0  0  0  0
  -22.8964   22.0543  -11.4969 C   0  0  0  0  0  0
  -23.4599   22.9413  -10.5429 C   0  0  0  0  0  0
  -24.5442   22.7614   -9.6251 N   0  0  0  0  0  0
  -25.4032   21.6759   -9.5499 C   0  0  0  0  0  0
  -26.1318   21.7863   -8.3821 C   0  0  0  0  0  0
  -25.8203   23.0424   -7.8238 C   0  0  0  0  0  0
  -25.0777   23.7081   -8.7788 C   0  0  0  0  0  0
  -22.7420   24.2023  -10.4271 C   0  0  0  0  0  0
  -21.7468   24.3143  -11.3761 C   0  0  0  0  0  0
  -21.6899   22.9909  -12.4054 S   0  0  0  0  0  0
  -20.8704   25.3304  -11.5171 N   0  0  0  0  0  0
  -20.9870   26.2966  -10.5875 C   0  0  0  0  0  0
  -21.9262   26.3192   -9.5768 C   0  0  0  0  0  0
  -22.8298   25.2665   -9.4945 C   0  0  0  0  0  0
  1  2  1  0  0  0
  2  3  1  0  0  0
  3  4  2  0  0  0
  3  8  1  0  0  0
  4  5  1  0  0  0
  4  9  1  0  0  0
  5  6  2  0  0  0
  6  7  1  0  0  0
  7  8  2  0  0  0
  9 10  1  0  0  0
  9 14  1  0  0  0
 10 11  1  0  0  0
 11 12  1  0  0  0
 12 13  1  0  0  0
 12 15  1  0  0  0
 13 14  1  0  0  0
 15 16  2  0  0  0
 15 17  1  0  0  0
 17 18  2  0  0  0
 17 26  1  0  0  0
 18 19  1  0  0  0
 18 24  1  0  0  0
 19 20  1  0  0  0
 19 23  1  0  0  0
 20 21  2  0  0  0
 21 22  1  0  0  0
 22 23  2  0  0  0
 24 25  2  0  0  0
 24 30  1  0  0  0
 25 26  1  0  0  0
 25 27  1  0  0  0
 27 28  2  0  0  0
 28 29  1  0  0  0
 29 30  2  0  0  0
M  END
>  <CHROM.0>
40.14286316,-165.79900674,-128.78424095,63.38764133,168.05800288,176.87412708
-37.32066810,-161.60817820

>  <CHROM.1>
73.74572858,140.37582101,-130.03772059,-6.91977351,-21.58312288,21.23178669
-12.56760605,0.83105579,-0.73697391,-2.84085467

>  <Name>
F3406-3354

>  <RI>
3.24878e+07

>  <Rbt.Current_Directory>
/home/adria/Escritorio/rDock_CMTR_LC/2pxcA_model/inputs_sah

>  <Rbt.Executable>
rbdock ($Id: //depot/dev/client3/rdock/2013.1/src/exe/rbdock.cxx#4 $)

>  <Rbt.Library>
libRbt.so (2013.1, Build901 2013/11/27)

>  <Rbt.Parameter_File>
/home/adria/Escritorio/rDock_2013.1_src/data/scripts/dock.prm

>  <Rbt.Receptor>
sah_rdock.prm

>  <SCORE>
-39.7433

>  <SCORE.INTER>
-12.4575

>  <SCORE.INTER.CONST>
1

>  <SCORE.INTER.POLAR>
0

>  <SCORE.INTER.REPUL>
0.0824569

>  <SCORE.INTER.ROT>
4

>  <SCORE.INTER.VDW>
-22.2698

>  <SCORE.INTER.norm>
-0.415251

>  <SCORE.INTRA>
-30.6476

>  <SCORE.INTRA.DIHEDRAL>
-58.1887

>  <SCORE.INTRA.DIHEDRAL.0>
77.0836

>  <SCORE.INTRA.POLAR>
0

>  <SCORE.INTRA.POLAR.0>
0

>  <SCORE.INTRA.REPUL>
0

>  <SCORE.INTRA.REPUL.0>
0

>  <SCORE.INTRA.VDW>
-1.55324

>  <SCORE.INTRA.VDW.0>
0.58543

>  <SCORE.INTRA.norm>
-1.02159

>  <SCORE.RESTR>
0

>  <SCORE.RESTR.CAVITY>
0

>  <SCORE.RESTR.norm>
0

>  <SCORE.SYSTEM>
3.36179

>  <SCORE.SYSTEM.CONST>
0

>  <SCORE.SYSTEM.DIHEDRAL>
8.50623

>  <SCORE.SYSTEM.POLAR>
-4.06314

>  <SCORE.SYSTEM.REPUL>
0.122719

>  <SCORE.SYSTEM.VDW>
12.3098

>  <SCORE.SYSTEM.norm>
0.11206

>  <SCORE.heavy>
30

>  <SCORE.norm>
-1.32478

$$$$
F3406-3354
  rDOCK(R)          3D
libRbt.so/2013.1/901 2013/11/27
 30 34  0  0  0  0  0  0  0  0999 V2000
  -21.9770   19.3399  -15.7568 C   0  0  0  0  0  0
  -20.7574   19.7897  -16.2818 O   0  0  0  0  0  0
  -19.5363   19.3127  -15.8924 C   0  0  0  0  0  0
  -19.1422   18.4706  -14.8259 C   0  0  0  0  0  0
  -17.8202   17.9413  -14.9427 C   0  0  0  0  0  0
  -16.9317   18.2575  -15.9825 C   0  0  0  0  0  0
  -17.3225   19.1430  -16.9626 C   0  0  0  0  0  0
  -18.6125   19.6509  -16.9148 C   0  0  0  0  0  0
  -19.9110   18.0743  -13.7318 N   0  0  0  0  0  0
  -20.1713   19.0368  -12.6423 C   0  0  0  0  0  0
  -20.9839   18.3594  -11.5166 C   0  0  0  0  0  0
  -22.2813   18.0738  -12.0729 N   0  0  0  0  0  0
  -22.1924   17.0930  -13.1766 C   0  0  0  0  0  0
  -20.7405   16.8502  -13.6890 C   0  0  0  0  0  0
  -23.4547   18.8014  -11.8834 C   0  0  0  0  0  0
  -24.4320   18.3607  -12.5555 O   0  0  0  0  0  0
  -23.6508   20.0209  -11.0290 C   0  0  0  0  0  0
  -23.3481   21.4042  -10.9322 C   0  0  0  0  0  0
  -22.5711   22.2532  -11.7843 N   0  0  0  0  0  0
  -22.4696   23.6342  -11.7192 C   0  0  0  0  0  0
  -21.4374   24.0274  -12.5479 C   0  0  0  0  0  0
  -21.0146   22.8787  -13.2465 C   0  0  0  0  0  0
  -21.9395   21.8958  -12.9550 C   0  0  0  0  0  0
  -24.0273   22.0717   -9.8312 C   0  0  0  0  0  0
  -24.7122   21.1777   -9.0343 C   0  0  0  0  0  0
  -24.5223   19.5899   -9.5415 S   0  0  0  0  0  0
  -25.4796   21.4678   -7.9633 N   0  0  0  0  0  0
  -25.5962   22.7833   -7.7043 C   0  0  0  0  0  0
  -24.9778   23.7920   -8.4147 C   0  0  0  0  0  0
  -24.1691   23.4401   -9.4887 C   0  0  0  0  0  0
  1  2  1  0  0  0
  2  3  1  0  0  0
  3  4  2  0  0  0
  3  8  1  0  0  0
  4  5  1  0  0  0
  4  9  1  0  0  0
  5  6  2  0  0  0
  6  7  1  0  0  0
  7  8  2  0  0  0
  9 10  1  0  0  0
  9 14  1  0  0  0
 10 11  1  0  0  0
 11 12  1  0  0  0
 12 13  1  0  0  0
 12 15  1  0  0  0
 13 14  1  0  0  0
 15 16  2  0  0  0
 15 17  1  0  0  0
 17 18  2  0  0  0
 17 26  1  0  0  0
 18 19  1  0  0  0
 18 24  1  0  0  0
 19 20  1  0  0  0
 19 23  1  0  0  0
 20 21  2  0  0  0
 21 22  1  0  0  0
 22 23  2  0  0  0
 24 25  2  0  0  0
 24 30  1  0  0  0
 25 26  1  0  0  0
 25 27  1  0  0  0
 27 28  2  0  0  0
 28 29  1  0  0  0
 29 30  2  0  0  0
M  END
>  <CHROM.0>
-175.01659352,67.82364506,110.70141526,-59.82798718,168.26397228,-51.19554233
-36.31101463,-158.58731293

>  <CHROM.1>
-10.20821842,-75.04157794,71.25235651,170.58011622,-21.99092232,20.15829746
-12.41080578,-0.42725716,0.82351747,0.07888553

>  <Name>
F3406-3354

>  <RI>
3.24878e+07

>  <Rbt.Current_Directory>
/home/adria/Escritorio/rDock_CMTR_LC/2pxcA_model/inputs_sah

>  <Rbt.Executable>
rbdock ($Id: //depot/dev/client3/rdock/2013.1/src/exe/rbdock.cxx#4 $)

>  <Rbt.Library>
libRbt.so (2013.1, Build901 2013/11/27)

>  <Rbt.Parameter_File>
/home/adria/Escritorio/rDock_2013.1_src/data/scripts/dock.prm

>  <Rbt.Receptor>
sah_rdock.prm

>  <SCORE>
-42.136

>  <SCORE.INTER>
-10.9559

>  <SCORE.INTER.CONST>
1

>  <SCORE.INTER.POLAR>
-0.8296

>  <SCORE.INTER.REPUL>
0

>  <SCORE.INTER.ROT>
4

>  <SCORE.INTER.VDW>
-17.5353

>  <SCORE.INTER.norm>
-0.365198

>  <SCORE.INTRA>
-29.9324

>  <SCORE.INTRA.DIHEDRAL>
-52.8496

>  <SCORE.INTRA.DIHEDRAL.0>
77.0836

>  <SCORE.INTRA.POLAR>
0

>  <SCORE.INTRA.POLAR.0>
0

>  <SCORE.INTRA.REPUL>
0

>  <SCORE.INTRA.REPUL.0>
0

>  <SCORE.INTRA.VDW>
-3.50765

>  <SCORE.INTRA.VDW.0>
0.58543

>  <SCORE.INTRA.norm>
-0.997748

>  <SCORE.RESTR>
0

>  <SCORE.RESTR.CAVITY>
0

>  <SCORE.RESTR.norm>
0

>  <SCORE.SYSTEM>
-1.24767

>  <SCORE.SYSTEM.CONST>
0

>  <SCORE.SYSTEM.DIHEDRAL>
6.51362

>  <SCORE.SYSTEM.POLAR>
-4.20406

>  <SCORE.SYSTEM.VDW>
9.78933

>  <SCORE.SYSTEM.norm>
-0.0415891

>  <SCORE.heavy>
30

>  <SCORE.norm>
-1.40453

$$$$
F3406-3354
  rDOCK(R)          3D
libRbt.so/2013.1/901 2013/11/27
 30 34  0  0  0  0  0  0  0  0999 V2000
  -23.9470   22.9909   -7.8053 C   0  0  0  0  0  0
  -23.8162   24.0908   -8.6647 O   0  0  0  0  0  0
  -22.7008   24.3461   -9.4136 C   0  0  0  0  0  0
  -22.1753   23.7305  -10.5742 C   0  0  0  0  0  0
  -21.1657   24.4876  -11.2442 C   0  0  0  0  0  0
  -20.6642   25.7158  -10.7854 C   0  0  0  0  0  0
  -21.1446   26.2475   -9.6089 C   0  0  0  0  0  0
  -22.1559   25.5691   -8.9443 C   0  0  0  0  0  0
  -22.5700   22.5196  -11.1426 N   0  0  0  0  0  0
  -22.1511   22.1956  -12.5212 C   0  0  0  0  0  0
  -22.7560   20.8426  -12.9572 C   0  0  0  0  0  0
  -22.1292   19.8386  -12.1366 N   0  0  0  0  0  0
  -22.4749   20.0138  -10.7091 C   0  0  0  0  0  0
  -23.1421   21.3848  -10.3855 C   0  0  0  0  0  0
  -21.0847   18.9902  -12.4991 C   0  0  0  0  0  0
  -20.6826   18.2562  -11.5501 O   0  0  0  0  0  0
  -20.3996   18.8954  -13.8322 C   0  0  0  0  0  0
  -20.6312   18.8671  -15.2322 C   0  0  0  0  0  0
  -21.8529   18.8986  -15.9786 N   0  0  0  0  0  0
  -23.1419   18.8223  -15.4742 C   0  0  0  0  0  0
  -24.0197   19.1393  -16.4920 C   0  0  0  0  0  0
  -23.2547   19.2522  -17.6703 C   0  0  0  0  0  0
  -21.9899   18.8032  -17.3458 C   0  0  0  0  0  0
  -19.4105   18.9098  -16.0240 C   0  0  0  0  0  0
  -18.2834   18.8277  -15.2325 C   0  0  0  0  0  0
  -18.6532   18.6577  -13.6050 S   0  0  0  0  0  0
  -16.9988   18.8846  -15.6411 N   0  0  0  0  0  0
  -16.8455   19.0851  -16.9630 C   0  0  0  0  0  0
  -17.8746   19.1931  -17.8761 C   0  0  0  0  0  0
  -19.1803   19.0929  -17.4108 C   0  0  0  0  0  0
  1  2  1  0  0  0
  2  3  1  0  0  0
  3  4  2  0  0  0
  3  8  1  0  0  0
  4  5  1  0  0  0
  4  9  1  0  0  0
  5  6  2  0  0  0
  6  7  1  0  0  0
  7  8  2  0  0  0
  9 10  1  0  0  0
  9 14  1  0  0  0
 10 11  1  0  0  0
 11 12  1  0  0  0
 12 13  1  0  0  0
 12 15  1  0  0  0
 13 14  1  0  0  0
 15 16  2  0  0  0
 15 17  1  0  0  0
 17 18  2  0  0  0
 17 26  1  0  0  0
 18 19  1  0  0  0
 18 24  1  0  0  0
 19 20  1  0  0  0
 19 23  1  0  0  0
 20 21  2  0  0  0
 21 22  1  0  0  0
 22 23  2  0  0  0
 24 25  2  0  0  0
 24 30  1  0  0  0
 25 26  1  0  0  0
 25 27  1  0  0  0
 27 28  2  0  0  0
 28 29  1  0  0  0
 29 30  2  0  0  0
M  END
>  <CHROM.0>
-179.98441534,-77.03538394,-43.46443863,63.46675708,-30.65979084,178.58244070
-156.08210646,-162.00798104

>  <CHROM.1>
73.14054956,164.92517264,-43.25145972,-7.50502433,-21.17243046,20.80074764
-13.12864136,1.90432282,0.15493127,0.84741209

>  <Name>
F3406-3354

>  <RI>
3.24878e+07

>  <Rbt.Current_Directory>
/home/adria/Escritorio/rDock_CMTR_LC/2pxcA_model/inputs_sah

>  <Rbt.Executable>
rbdock ($Id: //depot/dev/client3/rdock/2013.1/src/exe/rbdock.cxx#4 $)

>  <Rbt.Library>
libRbt.so (2013.1, Build901 2013/11/27)

>  <Rbt.Parameter_File>
/home/adria/Escritorio/rDock_2013.1_src/data/scripts/dock.prm

>  <Rbt.Receptor>
sah_rdock.prm

>  <SCORE>
-55.8998

>  <SCORE.INTER>
-15.8916

>  <SCORE.INTER.CONST>
1

>  <SCORE.INTER.POLAR>
0

>  <SCORE.INTER.REPUL>
0

>  <SCORE.INTER.ROT>
4

>  <SCORE.INTER.VDW>
-25.2916

>  <SCORE.INTER.norm>
-0.529719

>  <SCORE.INTRA>
-32.6823

>  <SCORE.INTRA.DIHEDRAL>
-65.3938

>  <SCORE.INTRA.DIHEDRAL.0>
77.0836

>  <SCORE.INTRA.POLAR>
0

>  <SCORE.INTRA.POLAR.0>
0

>  <SCORE.INTRA.REPUL>
0

>  <SCORE.INTRA.REPUL.0>
0

>  <SCORE.INTRA.VDW>
0.0145684

>  <SCORE.INTRA.VDW.0>
0.58543

>  <SCORE.INTRA.norm>
-1.08941

>  <SCORE.RESTR>
0

>  <SCORE.RESTR.CAVITY>
0

>  <SCORE.RESTR.norm>
0

>  <SCORE.SYSTEM>
-7.32594

>  <SCORE.SYSTEM.CONST>
0

>  <SCORE.SYSTEM.DIHEDRAL>
7.20734

>  <SCORE.SYSTEM.POLAR>
-4.12911

>  <SCORE.SYSTEM.REPUL>
0.0449318

>  <SCORE.SYSTEM.VDW>
2.88469

>  <SCORE.SYSTEM.norm>
-0.244198

>  <SCORE.heavy>
30

>  <SCORE.norm>
-1.86333

$$$$
F3406-3354
  rDOCK(R)          3D
libRbt.so/2013.1/901 2013/11/27
 30 34  0  0  0  0  0  0  0  0999 V2000
  -23.2142   24.0317  -11.4799 C   0  0  0  0  0  0
  -23.8109   23.6191  -12.6795 O   0  0  0  0  0  0
  -24.0597   22.3127  -12.9987 C   0  0  0  0  0  0
  -23.2249   21.1713  -13.0447 C   0  0  0  0  0  0
  -23.9225   19.9261  -13.1108 C   0  0  0  0  0  0
  -25.3189   19.8060  -13.1894 C   0  0  0  0  0  0
  -26.0965   20.9426  -13.2212 C   0  0  0  0  0  0
  -25.4668   22.1744  -13.1170 C   0  0  0  0  0  0
  -21.8322   21.1380  -12.9798 N   0  0  0  0  0  0
  -21.1318   19.8435  -13.1019 C   0  0  0  0  0  0
  -19.6090   20.0446  -12.9365 C   0  0  0  0  0  0
  -19.1772   20.8058  -14.0803 N   0  0  0  0  0  0
  -19.7814   22.1559  -14.0908 C   0  0  0  0  0  0
  -20.9591   22.3276  -13.0842 C   0  0  0  0  0  0
  -18.5461   20.3185  -15.2234 C   0  0  0  0  0  0
  -18.3470   21.2060  -16.1030 O   0  0  0  0  0  0
  -18.1342   18.9034  -15.5119 C   0  0  0  0  0  0
  -17.1075   18.1113  -16.0889 C   0  0  0  0  0  0
  -15.8916   18.4893  -16.7441 N   0  0  0  0  0  0
  -14.8789   17.6468  -17.1759 C   0  0  0  0  0  0
  -14.0198   18.3813  -17.9692 C   0  0  0  0  0  0
  -14.4338   19.7257  -17.8834 C   0  0  0  0  0  0
  -15.3924   19.7646  -16.8903 C   0  0  0  0  0  0
  -17.2933   16.6819  -15.8861 C   0  0  0  0  0  0
  -18.5073   16.4021  -15.2933 C   0  0  0  0  0  0
  -19.4237   17.7815  -15.0256 S   0  0  0  0  0  0
  -18.9712   15.1894  -14.9268 N   0  0  0  0  0  0
  -18.1100   14.1777  -15.1418 C   0  0  0  0  0  0
  -16.8625   14.3037  -15.7181 C   0  0  0  0  0  0
  -16.4438   15.5693  -16.1109 C   0  0  0  0  0  0
  1  2  1  0  0  0
  2  3  1  0  0  0
  3  4  2  0  0  0
  3  8  1  0  0  0
  4  5  1  0  0  0
  4  9  1  0  0  0
  5  6  2  0  0  0
  6  7  1  0  0  0
  7  8  2  0  0  0
  9 10  1  0  0  0
  9 14  1  0  0  0
 10 11  1  0  0  0
 11 12  1  0  0  0
 12 13  1  0  0  0
 12 15  1  0  0  0
 13 14  1  0  0  0
 15 16  2  0  0  0
 15 17  1  0  0  0
 17 18  2  0  0  0
 17 26  1  0  0  0
 18 19  1  0  0  0
 18 24  1  0  0  0
 19 20  1  0  0  0
 19 23  1  0  0  0
 20 21  2  0  0  0
 21 22  1  0  0  0
 22 23  2  0  0  0
 24 25  2  0  0  0
 24 30  1  0  0  0
 25 26  1  0  0  0
 25 27  1  0  0  0
 27 28  2  0  0  0
 28 29  1  0  0  0
 29 30  2  0  0  0
M  END
>  <CHROM.0>
40.33509765,-74.47230459,109.30096339,64.68601433,-30.95964167,60.38877036
-155.49923559,-160.09190158

>  <CHROM.1>
-54.14049427,-177.42865048,-140.73564344,173.68265415,-19.69393282,19.43741429
-14.67252907,-2.60863417,-0.42216769,-3.08840695

>  <Name>
F3406-3354

>  <RI>
3.24878e+07

>  <Rbt.Current_Directory>
/home/adria/Escritorio/rDock_CMTR_LC/2pxcA_model/inputs_sah

>  <Rbt.Executable>
rbdock ($Id: //depot/dev/client3/rdock/2013.1/src/exe/rbdock.cxx#4 $)

>  <Rbt.Library>
libRbt.so (2013.1, Build901 2013/11/27)

>  <Rbt.Parameter_File>
/home/adria/Escritorio/rDock_2013.1_src/data/scripts/dock.prm

>  <Rbt.Receptor>
sah_rdock.prm

>  <SCORE>
-49.1473

>  <SCORE.INTER>
-12.9801

>  <SCORE.INTER.CONST>
1

>  <SCORE.INTER.POLAR>
0

>  <SCORE.INTER.REPUL>
0

>  <SCORE.INTER.ROT>
4

>  <SCORE.INTER.VDW>
-22.3801

>  <SCORE.INTER.norm>
-0.43267

>  <SCORE.INTRA>
-32.9596

>  <SCORE.INTRA.DIHEDRAL>
-67.1307

>  <SCORE.INTRA.DIHEDRAL.0>
77.0836

>  <SCORE.INTRA.POLAR>
0

>  <SCORE.INTRA.POLAR.0>
0

>  <SCORE.INTRA.REPUL>
0

>  <SCORE.INTRA.REPUL.0>
0

>  <SCORE.INTRA.VDW>
0.605738

>  <SCORE.INTRA.VDW.0>
0.58543

>  <SCORE.INTRA.norm>
-1.09865

>  <SCORE.RESTR>
0

>  <SCORE.RESTR.CAVITY>
0

>  <SCORE.RESTR.norm>
0

>  <SCORE.SYSTEM>
-3.20756

>  <SCORE.SYSTEM.CONST>
0

>  <SCORE.SYSTEM.DIHEDRAL>
11.4284

>  <SCORE.SYSTEM.POLAR>
-4.62308

>  <SCORE.SYSTEM.REPUL>
0.163133

>  <SCORE.SYSTEM.VDW>
5.98102

>  <SCORE.SYSTEM.norm>
-0.106919

>  <SCORE.heavy>
30

>  <SCORE.norm>
-1.63824

$$$$
F3406-3354
  rDOCK(R)          3D
libRbt.so/2013.1/901 2013/11/27
 30 34  0  0  0  0  0  0  0  0999 V2000
  -22.8284   20.2851   -9.4163 C   0  0  0  0  0  0
  -23.6884   20.1829  -10.5187 O   0  0  0  0  0  0
  -23.7374   19.0987  -11.3509 C   0  0  0  0  0  0
  -22.7375   18.4230  -12.0894 C   0  0  0  0  0  0
  -23.1275   17.1407  -12.5845 C   0  0  0  0  0  0
  -24.4087   16.5892  -12.4265 C   0  0  0  0  0  0
  -25.3809   17.3101  -11.7688 C   0  0  0  0  0  0
  -25.0375   18.5430  -11.2335 C   0  0  0  0  0  0
  -21.4307   18.8471  -12.3298 N   0  0  0  0  0  0
  -20.5226   17.9868  -13.1149 C   0  0  0  0  0  0
  -19.1195   18.6281  -13.1960 C   0  0  0  0  0  0
  -19.2686   19.8232  -13.9858 N   0  0  0  0  0  0
  -20.1440   20.8090  -13.3151 C   0  0  0  0  0  0
  -20.9428   20.2262  -12.1103 C   0  0  0  0  0  0
  -18.9408   19.9871  -15.3304 C   0  0  0  0  0  0
  -19.2485   21.1267  -15.7861 O   0  0  0  0  0  0
  -18.3223   18.9773  -16.2542 C   0  0  0  0  0  0
  -17.1288   18.6505  -16.9493 C   0  0  0  0  0  0
  -15.8762   19.3396  -17.0317 N   0  0  0  0  0  0
  -14.7321   18.9166  -17.6905 C   0  0  0  0  0  0
  -13.8472   19.9757  -17.7350 C   0  0  0  0  0  0
  -14.4032   21.0055  -16.9498 C   0  0  0  0  0  0
  -15.4929   20.4485  -16.3104 C   0  0  0  0  0  0
  -17.1739   17.3498  -17.6012 C   0  0  0  0  0  0
  -18.4262   16.7770  -17.5156 C   0  0  0  0  0  0
  -19.5312   17.7647  -16.7297 S   0  0  0  0  0  0
  -18.7960   15.5625  -17.9721 N   0  0  0  0  0  0
  -17.7974   14.8500  -18.5256 C   0  0  0  0  0  0
  -16.4967   15.2863  -18.6750 C   0  0  0  0  0  0
  -16.1731   16.5590  -18.2201 C   0  0  0  0  0  0
  1  2  1  0  0  0
  2  3  1  0  0  0
  3  4  2  0  0  0
  3  8  1  0  0  0
  4  5  1  0  0  0
  4  9  1  0  0  0
  5  6  2  0  0  0
  6  7  1  0  0  0
  7  8  2  0  0  0
  9 10  1  0  0  0
  9 14  1  0  0  0
 10 11  1  0  0  0
 11 12  1  0  0  0
 12 13  1  0  0  0
 12 15  1  0  0  0
 13 14  1  0  0  0
 15 16  2  0  0  0
 15 17  1  0  0  0
 17 18  2  0  0  0
 17 26  1  0  0  0
 18 19  1  0  0  0
 18 24  1  0  0  0
 19 20  1  0  0  0
 19 23  1  0  0  0
 20 21  2  0  0  0
 21 22  1  0  0  0
 22 23  2  0  0  0
 24 25  2  0  0  0
 24 30  1  0  0  0
 25 26  1  0  0  0
 25 27  1  0  0  0
 27 28  2  0  0  0
 28 29  1  0  0  0
 29 30  2  0  0  0
M  END
>  <CHROM.0>
-178.22529813,-73.00171245,109.98552317,67.05904355,-30.87087468,-176.01318044
-156.98515912,-158.71228114

>  <CHROM.1>
-53.86222960,179.17034155,-108.86826345,176.83599787,-19.53850465,18.55992518
-14.83932377,-2.67743098,-0.56309956,-2.49261702

>  <Name>
F3406-3354

>  <RI>
3.24878e+07

>  <Rbt.Current_Directory>
/home/adria/Escritorio/rDock_CMTR_LC/2pxcA_model/inputs_sah

>  <Rbt.Executable>
rbdock ($Id: //depot/dev/client3/rdock/2013.1/src/exe/rbdock.cxx#4 $)

>  <Rbt.Library>
libRbt.so (2013.1, Build901 2013/11/27)

>  <Rbt.Parameter_File>
/home/adria/Escritorio/rDock_2013.1_src/data/scripts/dock.prm

>  <Rbt.Receptor>
sah_rdock.prm

>  <SCORE>
-53.137

>  <SCORE.INTER>
-15.0905

>  <SCORE.INTER.CONST>
1

>  <SCORE.INTER.POLAR>
0

>  <SCORE.INTER.REPUL>
0

>  <SCORE.INTER.ROT>
4

>  <SCORE.INTER.VDW>
-24.4905

>  <SCORE.INTER.norm>
-0.503016

>  <SCORE.INTRA>
-30.9407

>  <SCORE.INTRA.DIHEDRAL>
-61.0725

>  <SCORE.INTRA.DIHEDRAL.0>
77.0836

>  <SCORE.INTRA.POLAR>
0

>  <SCORE.INTRA.POLAR.0>
0

>  <SCORE.INTRA.REPUL>
0

>  <SCORE.INTRA.REPUL.0>
0

>  <SCORE.INTRA.VDW>
-0.404416

>  <SCORE.INTRA.VDW.0>
0.58543

>  <SCORE.INTRA.norm>
-1.03136

>  <SCORE.RESTR>
0

>  <SCORE.RESTR.CAVITY>
0

>  <SCORE.RESTR.norm>
0

>  <SCORE.SYSTEM>
-7.1058

>  <SCORE.SYSTEM.CONST>
0

>  <SCORE.SYSTEM.DIHEDRAL>
9.68358

>  <SCORE.SYSTEM.POLAR>
-4.63154

>  <SCORE.SYSTEM.REPUL>
0.0385386

>  <SCORE.SYSTEM.VDW>
3.60697

>  <SCORE.SYSTEM.norm>
-0.23686

>  <SCORE.heavy>
30

>  <SCORE.norm>
-1.77123

$$$$
F3406-3354
  rDOCK(R)          3D
libRbt.so/2013.1/901 2013/11/27
 30 34  0  0  0  0  0  0  0  0999 V2000
  -18.1456   14.1534  -15.3563 C   0  0  0  0  0  0
  -18.0859   14.0974  -16.7558 O   0  0  0  0  0  0
  -17.0498   14.5959  -17.4964 C   0  0  0  0  0  0
  -16.6222   15.9184  -17.7609 C   0  0  0  0  0  0
  -15.3091   16.0197  -18.3151 C   0  0  0  0  0  0
  -14.5031   14.9183  -18.6436 C   0  0  0  0  0  0
  -14.9840   13.6429  -18.4446 C   0  0  0  0  0  0
  -16.2376   13.4940  -17.8694 C   0  0  0  0  0  0
  -17.3120   17.1006  -17.4932 N   0  0  0  0  0  0
  -18.6493   17.0341  -16.8699 C   0  0  0  0  0  0
  -19.2423   18.4536  -16.7295 C   0  0  0  0  0  0
  -18.4208   19.1392  -15.7654 N   0  0  0  0  0  0
  -17.0362   19.3082  -16.2577 C   0  0  0  0  0  0
  -16.7048   18.4494  -17.5155 C   0  0  0  0  0  0
  -18.7113   19.3596  -14.4203 C   0  0  0  0  0  0
  -17.7716   19.9266  -13.7908 O   0  0  0  0  0  0
  -19.9567   18.9734  -13.6750 C   0  0  0  0  0  0
  -20.9295   19.4508  -12.7584 C   0  0  0  0  0  0
  -21.0432   20.7108  -12.0875 N   0  0  0  0  0  0
  -20.1069   21.7329  -12.0659 C   0  0  0  0  0  0
  -20.7073   22.8525  -11.5248 C   0  0  0  0  0  0
  -21.9783   22.4524  -11.0655 C   0  0  0  0  0  0
  -22.0029   21.0757  -11.1694 C   0  0  0  0  0  0
  -22.0367   18.5282  -12.5535 C   0  0  0  0  0  0
  -21.8258   17.3245  -13.1939 C   0  0  0  0  0  0
  -20.3430   17.2652  -13.9764 S   0  0  0  0  0  0
  -22.6701   16.2735  -13.2450 N   0  0  0  0  0  0
  -23.8487   16.4782  -12.6283 C   0  0  0  0  0  0
  -24.2045   17.6281  -11.9535 C   0  0  0  0  0  0
  -23.2864   18.6700  -11.8993 C   0  0  0  0  0  0
  1  2  1  0  0  0
  2  3  1  0  0  0
  3  4  2  0  0  0
  3  8  1  0  0  0
  4  5  1  0  0  0
  4  9  1  0  0  0
  5  6  2  0  0  0
  6  7  1  0  0  0
  7  8  2  0  0  0
  9 10  1  0  0  0
  9 14  1  0  0  0
 10 11  1  0  0  0
 11 12  1  0  0  0
 12 13  1  0  0  0
 12 15  1  0  0  0
 13 14  1  0  0  0
 15 16  2  0  0  0
 15 17  1  0  0  0
 17 18  2  0  0  0
 17 26  1  0  0  0
 18 19  1  0  0  0
 18 24  1  0  0  0
 19 20  1  0  0  0
 19 23  1  0  0  0
 20 21  2  0  0  0
 21 22  1  0  0  0
 22 23  2  0  0  0
 24 25  2  0  0  0
 24 30  1  0  0  0
 25 26  1  0  0  0
 25 27  1  0  0  0
 27 28  2  0  0  0
 28 29  1  0  0  0
 29 30  2  0  0  0
M  END
>  <CHROM.0>
40.00179022,-75.51084622,73.49025304,65.94242582,-30.75680074,61.79168950
-156.71676153,-160.43780297

>  <CHROM.1>
-69.80661173,-0.35305810,-134.14545090,-8.32228485,-19.33192482,17.78962916
-14.77201823,0.75562349,-0.59258407,-2.79435594

>  <Name>
F3406-3354

>  <RI>
3.24878e+07

>  <Rbt.Current_Directory>
/home/adria/Escritorio/rDock_CMTR_LC/2pxcA_model/inputs_sah

>  <Rbt.Executable>
rbdock ($Id: //depot/dev/client3/rdock/2013.1/src/exe/rbdock.cxx#4 $)

>  <Rbt.Library>
libRbt.so (2013.1, Build901 2013/11/27)

>  <Rbt.Parameter_File>
/home/adria/Escritorio/rDock_2013.1_src/data/scripts/dock.prm

>  <Rbt.Receptor>
sah_rdock.prm

>  <SCORE>
-50.7805

>  <SCORE.INTER>
-13.9042

>  <SCORE.INTER.CONST>
1

>  <SCORE.INTER.POLAR>
0

>  <SCORE.INTER.REPUL>
0

>  <SCORE.INTER.ROT>
4

>  <SCORE.INTER.VDW>
-23.3042

>  <SCORE.INTER.norm>
-0.463473

>  <SCORE.INTRA>
-33.2283

>  <SCORE.INTRA.DIHEDRAL>
-64.8659

>  <SCORE.INTRA.DIHEDRAL.0>
77.0836

>  <SCORE.INTRA.POLAR>
0

>  <SCORE.INTRA.POLAR.0>
0

>  <SCORE.INTRA.REPUL>
0

>  <SCORE.INTRA.REPUL.0>
0

>  <SCORE.INTRA.VDW>
-0.79538

>  <SCORE.INTRA.VDW.0>
0.58543

>  <SCORE.INTRA.norm>
-1.10761

>  <SCORE.RESTR>
0

>  <SCORE.RESTR.CAVITY>
0

>  <SCORE.RESTR.norm>
0

>  <SCORE.SYSTEM>
-3.64793

>  <SCORE.SYSTEM.CONST>
0

>  <SCORE.SYSTEM.DIHEDRAL>
8.71024

>  <SCORE.SYSTEM.POLAR>
-4.11617

>  <SCORE.SYSTEM.REPUL>
0.165895

>  <SCORE.SYSTEM.VDW>
5.16246

>  <SCORE.SYSTEM.norm>
-0.121598

>  <SCORE.heavy>
30

>  <SCORE.norm>
-1.69268

$$$$
F3406-3354
  rDOCK(R)          3D
libRbt.so/2013.1/901 2013/11/27
 30 34  0  0  0  0  0  0  0  0999 V2000
  -18.3310   14.0294  -15.7284 C   0  0  0  0  0  0
  -17.5945   15.2221  -15.7071 O   0  0  0  0  0  0
  -16.9158   15.7197  -16.7851 C   0  0  0  0  0  0
  -17.0518   16.9209  -17.5204 C   0  0  0  0  0  0
  -15.9473   17.2240  -18.3746 C   0  0  0  0  0  0
  -14.8294   16.3923  -18.5458 C   0  0  0  0  0  0
  -14.7677   15.1921  -17.8725 C   0  0  0  0  0  0
  -15.7972   14.8736  -16.9989 C   0  0  0  0  0  0
  -18.1003   17.8383  -17.4567 N   0  0  0  0  0  0
  -19.2295   17.5856  -16.5390 C   0  0  0  0  0  0
  -20.2939   18.6955  -16.6865 C   0  0  0  0  0  0
  -19.6846   19.9049  -16.1959 N   0  0  0  0  0  0
  -18.5351   20.3098  -17.0342 C   0  0  0  0  0  0
  -18.0550   19.2043  -18.0226 C   0  0  0  0  0  0
  -19.8758   20.4947  -14.9478 C   0  0  0  0  0  0
  -19.1527   21.5159  -14.7599 O   0  0  0  0  0  0
  -20.7855   20.0348  -13.8449 C   0  0  0  0  0  0
  -21.5324   20.4818  -12.7238 C   0  0  0  0  0  0
  -21.6629   21.7860  -12.1471 N   0  0  0  0  0  0
  -22.5222   22.1662  -11.1279 C   0  0  0  0  0  0
  -22.1554   23.4292  -10.7071 C   0  0  0  0  0  0
  -21.1597   23.8824  -11.5958 C   0  0  0  0  0  0
  -21.1179   22.9587  -12.6213 C   0  0  0  0  0  0
  -22.3718   19.4482  -12.1356 C   0  0  0  0  0  0
  -22.1501   18.2163  -12.7159 C   0  0  0  0  0  0
  -20.9524   18.2661  -13.8895 S   0  0  0  0  0  0
  -22.7901   17.0615  -12.4384 N   0  0  0  0  0  0
  -23.7696   17.1762  -11.5226 C   0  0  0  0  0  0
  -24.1101   18.3396  -10.8633 C   0  0  0  0  0  0
  -23.3979   19.4959  -11.1584 C   0  0  0  0  0  0
  1  2  1  0  0  0
  2  3  1  0  0  0
  3  4  2  0  0  0
  3  8  1  0  0  0
  4  5  1  0  0  0
  4  9  1  0  0  0
  5  6  2  0  0  0
  6  7  1  0  0  0
  7  8  2  0  0  0
  9 10  1  0  0  0
  9 14  1  0  0  0
 10 11  1  0  0  0
 11 12  1  0  0  0
 12 13  1  0  0  0
 12 15  1  0  0  0
 13 14  1  0  0  0
 15 16  2  0  0  0
 15 17  1  0  0  0
 17 18  2  0  0  0
 17 26  1  0  0  0
 18 19  1  0  0  0
 18 24  1  0  0  0
 19 20  1  0  0  0
 19 23  1  0  0  0
 20 21  2  0  0  0
 21 22  1  0  0  0
 22 23  2  0  0  0
 24 25  2  0  0  0
 24 30  1  0  0  0
 25 26  1  0  0  0
 25 27  1  0  0  0
 27 28  2  0  0  0
 28 29  1  0  0  0
 29 30  2  0  0  0
M  END
>  <CHROM.0>
-62.69171306,-71.13972257,108.69077135,65.05711282,-30.32134665,60.05725490
-156.92023793,-163.99410173

>  <CHROM.1>
118.04747880,-0.10916435,-153.42258837,172.92982645,-19.83964933,18.74782267
-14.62997156,0.54369920,-0.76481505,-3.10461959

>  <Name>
F3406-3354

>  <RI>
3.24878e+07

>  <Rbt.Current_Directory>
/home/adria/Escritorio/rDock_CMTR_LC/2pxcA_model/inputs_sah

>  <Rbt.Executable>
rbdock ($Id: //depot/dev/client3/rdock/2013.1/src/exe/rbdock.cxx#4 $)

>  <Rbt.Library>
libRbt.so (2013.1, Build901 2013/11/27)

>  <Rbt.Parameter_File>
/home/adria/Escritorio/rDock_2013.1_src/data/scripts/dock.prm

>  <Rbt.Receptor>
sah_rdock.prm

>  <SCORE>
-51.1228

>  <SCORE.INTER>
-11.1367

>  <SCORE.INTER.CONST>
1

>  <SCORE.INTER.POLAR>
0

>  <SCORE.INTER.REPUL>
0.0377137

>  <SCORE.INTER.ROT>
4

>  <SCORE.INTER.VDW>
-20.7252

>  <SCORE.INTER.norm>
-0.371223

>  <SCORE.INTRA>
-32.4059

>  <SCORE.INTRA.DIHEDRAL>
-68.939

>  <SCORE.INTRA.DIHEDRAL.0>
77.0836

>  <SCORE.INTRA.POLAR>
0

>  <SCORE.INTRA.POLAR.0>
0

>  <SCORE.INTRA.REPUL>
0

>  <SCORE.INTRA.REPUL.0>
0

>  <SCORE.INTRA.VDW>
2.06356

>  <SCORE.INTRA.VDW.0>
0.58543

>  <SCORE.INTRA.norm>
-1.0802

>  <SCORE.RESTR>
0

>  <SCORE.RESTR.CAVITY>
0

>  <SCORE.RESTR.norm>
0

>  <SCORE.SYSTEM>
-7.58017

>  <SCORE.SYSTEM.CONST>
0

>  <SCORE.SYSTEM.DIHEDRAL>
9.11627

>  <SCORE.SYSTEM.POLAR>
-4.61124

>  <SCORE.SYSTEM.REPUL>
0.0350456

>  <SCORE.SYSTEM.VDW>
3.36469

>  <SCORE.SYSTEM.norm>
-0.252672

>  <SCORE.heavy>
30

>  <SCORE.norm>
-1.70409

$$$$
F3406-3354
  rDOCK(R)          3D
libRbt.so/2013.1/901 2013/11/27
 30 34  0  0  0  0  0  0  0  0999 V2000
  -14.1741   18.7115  -18.3222 C   0  0  0  0  0  0
  -14.3765   17.5530  -17.5592 O   0  0  0  0  0  0
  -15.3874   16.6591  -17.7817 C   0  0  0  0  0  0
  -16.7929   16.8110  -17.8401 C   0  0  0  0  0  0
  -17.4880   15.7021  -18.4136 C   0  0  0  0  0  0
  -16.8692   14.5156  -18.8378 C   0  0  0  0  0  0
  -15.5068   14.3722  -18.6932 C   0  0  0  0  0  0
  -14.7832   15.4388  -18.1801 C   0  0  0  0  0  0
  -17.5409   17.9232  -17.4548 N   0  0  0  0  0  0
  -18.8636   17.7253  -16.8283 C   0  0  0  0  0  0
  -19.5295   19.0908  -16.5481 C   0  0  0  0  0  0
  -18.7319   19.7260  -15.5308 N   0  0  0  0  0  0
  -17.3655   20.0159  -16.0175 C   0  0  0  0  0  0
  -17.0069   19.2991  -17.3543 C   0  0  0  0  0  0
  -19.0145   19.8021  -14.1682 C   0  0  0  0  0  0
  -18.0974   20.3575  -13.4963 O   0  0  0  0  0  0
  -20.2266   19.2800  -13.4515 C   0  0  0  0  0  0
  -21.2419   19.6333  -12.5248 C   0  0  0  0  0  0
  -21.4666   20.8493  -11.8027 N   0  0  0  0  0  0
  -20.6388   21.9605  -11.7601 C   0  0  0  0  0  0
  -21.3365   22.9918  -11.1631 C   0  0  0  0  0  0
  -22.5486   22.4468  -10.6938 C   0  0  0  0  0  0
  -22.4357   21.0797  -10.8513 C   0  0  0  0  0  0
  -22.2675   18.6121  -12.3693 C   0  0  0  0  0  0
  -21.9509   17.4591  -13.0578 C   0  0  0  0  0  0
  -20.4640   17.5596  -13.8281 S   0  0  0  0  0  0
  -22.7022   16.3433  -13.1610 N   0  0  0  0  0  0
  -23.8974   16.4204  -12.5473 C   0  0  0  0  0  0
  -24.3540   17.5061  -11.8282 C   0  0  0  0  0  0
  -23.5285   18.6191  -11.7215 C   0  0  0  0  0  0
  1  2  1  0  0  0
  2  3  1  0  0  0
  3  4  2  0  0  0
  3  8  1  0  0  0
  4  5  1  0  0  0
  4  9  1  0  0  0
  5  6  2  0  0  0
  6  7  1  0  0  0
  7  8  2  0  0  0
  9 10  1  0  0  0
  9 14  1  0  0  0
 10 11  1  0  0  0
 11 12  1  0  0  0
 12 13  1  0  0  0
 12 15  1  0  0  0
 13 14  1  0  0  0
 15 16  2  0  0  0
 15 17  1  0  0  0
 17 18  2  0  0  0
 17 26  1  0  0  0
 18 19  1  0  0  0
 18 24  1  0  0  0
 19 20  1  0  0  0
 19 23  1  0  0  0
 20 21  2  0  0  0
 21 22  1  0  0  0
 22 23  2  0  0  0
 24 25  2  0  0  0
 24 30  1  0  0  0
 25 26  1  0  0  0
 25 27  1  0  0  0
 27 28  2  0  0  0
 28 29  1  0  0  0
 29 30  2  0  0  0
M  END
>  <CHROM.0>
-62.69804491,-75.19863211,109.54718371,63.04051888,-31.34032735,-61.05899060
-156.37641804,-161.68339887

>  <CHROM.1>
-56.20190535,-143.96228583,-130.46998444,-6.32388415,-19.32669011,18.45817663
-14.79751021,-0.62340350,0.57985403,0.45903866

>  <Name>
F3406-3354

>  <RI>
3.24878e+07

>  <Rbt.Current_Directory>
/home/adria/Escritorio/rDock_CMTR_LC/2pxcA_model/inputs_sah

>  <Rbt.Executable>
rbdock ($Id: //depot/dev/client3/rdock/2013.1/src/exe/rbdock.cxx#4 $)

>  <Rbt.Library>
libRbt.so (2013.1, Build901 2013/11/27)

>  <Rbt.Parameter_File>
/home/adria/Escritorio/rDock_2013.1_src/data/scripts/dock.prm

>  <Rbt.Receptor>
sah_rdock.prm

>  <SCORE>
-53.4784

>  <SCORE.INTER>
-14.5414

>  <SCORE.INTER.CONST>
1

>  <SCORE.INTER.POLAR>
0

>  <SCORE.INTER.REPUL>
0

>  <SCORE.INTER.ROT>
4

>  <SCORE.INTER.VDW>
-23.9414

>  <SCORE.INTER.norm>
-0.484714

>  <SCORE.INTRA>
-31.2869

>  <SCORE.INTRA.DIHEDRAL>
-61.783

>  <SCORE.INTRA.DIHEDRAL.0>
77.0836

>  <SCORE.INTRA.POLAR>
0

>  <SCORE.INTRA.POLAR.0>
0

>  <SCORE.INTRA.REPUL>
0

>  <SCORE.INTRA.REPUL.0>
0

>  <SCORE.INTRA.VDW>
-0.395454

>  <SCORE.INTRA.VDW.0>
0.58543

>  <SCORE.INTRA.norm>
-1.0429

>  <SCORE.RESTR>
0

>  <SCORE.RESTR.CAVITY>
0

>  <SCORE.RESTR.norm>
0

>  <SCORE.SYSTEM>
-7.65008

>  <SCORE.SYSTEM.CONST>
0

>  <SCORE.SYSTEM.DIHEDRAL>
9.53407

>  <SCORE.SYSTEM.POLAR>
-4.70384

>  <SCORE.SYSTEM.REPUL>
0.0422232

>  <SCORE.SYSTEM.VDW>
3.36482

>  <SCORE.SYSTEM.norm>
-0.255003

>  <SCORE.heavy>
30

>  <SCORE.norm>
-1.78261

$$$$
F3406-3354
  rDOCK(R)          3D
libRbt.so/2013.1/901 2013/11/27
 30 34  0  0  0  0  0  0  0  0999 V2000
  -20.5105   22.6768  -12.4489 C   0  0  0  0  0  0
  -20.4553   21.3593  -11.9731 O   0  0  0  0  0  0
  -21.5508   20.5539  -11.8263 C   0  0  0  0  0  0
  -22.1310   19.5774  -12.6700 C   0  0  0  0  0  0
  -23.0802   18.7241  -12.0278 C   0  0  0  0  0  0
  -23.4783   18.8526  -10.6878 C   0  0  0  0  0  0
  -22.9497   19.8650   -9.9175 C   0  0  0  0  0  0
  -21.9926   20.6932  -10.4852 C   0  0  0  0  0  0
  -21.8385   19.3369  -14.0123 N   0  0  0  0  0  0
  -20.5751   19.8476  -14.5814 C   0  0  0  0  0  0
  -20.4989   19.5184  -16.0888 C   0  0  0  0  0  0
  -20.3918   18.0852  -16.1827 N   0  0  0  0  0  0
  -21.6066   17.4173  -15.6667 C   0  0  0  0  0  0
  -22.5527   18.3611  -14.8644 C   0  0  0  0  0  0
  -19.2343   17.3429  -16.4091 C   0  0  0  0  0  0
  -19.4246   16.0926  -16.3686 O   0  0  0  0  0  0
  -17.8444   17.8595  -16.6475 C   0  0  0  0  0  0
  -16.6017   17.5456  -17.2570 C   0  0  0  0  0  0
  -16.1770   16.3762  -17.9660 N   0  0  0  0  0  0
  -16.8930   15.2029  -18.1464 C   0  0  0  0  0  0
  -16.2323   14.4383  -19.0875 C   0  0  0  0  0  0
  -15.0132   15.0907  -19.3607 C   0  0  0  0  0  0
  -14.9086   16.1043  -18.4289 C   0  0  0  0  0  0
  -15.6470   18.6441  -17.2288 C   0  0  0  0  0  0
  -16.1141   19.7100  -16.4878 C   0  0  0  0  0  0
  -17.6162   19.4074  -15.8047 S   0  0  0  0  0  0
  -15.5018   20.8972  -16.2983 N   0  0  0  0  0  0
  -14.3333   21.0295  -16.9529 C   0  0  0  0  0  0
  -13.7444   20.0563  -17.7343 C   0  0  0  0  0  0
  -14.3976   18.8372  -17.8704 C   0  0  0  0  0  0
  1  2  1  0  0  0
  2  3  1  0  0  0
  3  4  2  0  0  0
  3  8  1  0  0  0
  4  5  1  0  0  0
  4  9  1  0  0  0
  5  6  2  0  0  0
  6  7  1  0  0  0
  7  8  2  0  0  0
  9 10  1  0  0  0
  9 14  1  0  0  0
 10 11  1  0  0  0
 11 12  1  0  0  0
 12 13  1  0  0  0
 12 15  1  0  0  0
 13 14  1  0  0  0
 15 16  2  0  0  0
 15 17  1  0  0  0
 17 18  2  0  0  0
 17 26  1  0  0  0
 18 19  1  0  0  0
 18 24  1  0  0  0
 19 20  1  0  0  0
 19 23  1  0  0  0
 20 21  2  0  0  0
 21 22  1  0  0  0
 22 23  2  0  0  0
 24 25  2  0  0  0
 24 30  1  0  0  0
 25 26  1  0  0  0
 25 27  1  0  0  0
 27 28  2  0  0  0
 28 29  1  0  0  0
 29 30  2  0  0  0
M  END
>  <CHROM.0>
-176.28232143,-73.13673328,-47.28251128,63.38321503,-29.61096954,-63.70530063
-158.07450427,-158.29506692

>  <CHROM.1>
95.17680495,18.30728932,-153.96484771,-4.74486157,-18.77578016,18.70493727
-15.37460669,-2.51657706,-0.49374760,-2.56392403

>  <Name>
F3406-3354

>  <RI>
3.24878e+07

>  <Rbt.Current_Directory>
/home/adria/Escritorio/rDock_CMTR_LC/2pxcA_model/inputs_sah

>  <Rbt.Executable>
rbdock ($Id: //depot/dev/client3/rdock/2013.1/src/exe/rbdock.cxx#4 $)

>  <Rbt.Library>
libRbt.so (2013.1, Build901 2013/11/27)

>  <Rbt.Parameter_File>
/home/adria/Escritorio/rDock_2013.1_src/data/scripts/dock.prm

>  <Rbt.Receptor>
sah_rdock.prm

>  <SCORE>
-55.5198

>  <SCORE.INTER>
-15.5023

>  <SCORE.INTER.CONST>
1

>  <SCORE.INTER.POLAR>
0

>  <SCORE.INTER.REPUL>
0.0528631

>  <SCORE.INTER.ROT>
4

>  <SCORE.INTER.VDW>
-25.1666

>  <SCORE.INTER.norm>
-0.516743

>  <SCORE.INTRA>
-32.7104

>  <SCORE.INTRA.DIHEDRAL>
-67.5061

>  <SCORE.INTRA.DIHEDRAL.0>
77.0836

>  <SCORE.INTRA.POLAR>
0

>  <SCORE.INTRA.POLAR.0>
0

>  <SCORE.INTRA.REPUL>
0

>  <SCORE.INTRA.REPUL.0>
0

>  <SCORE.INTRA.VDW>
1.04263

>  <SCORE.INTRA.VDW.0>
0.58543

>  <SCORE.INTRA.norm>
-1.09035

>  <SCORE.RESTR>
0

>  <SCORE.RESTR.CAVITY>
0

>  <SCORE.RESTR.norm>
0

>  <SCORE.SYSTEM>
-7.3071

>  <SCORE.SYSTEM.CONST>
0

>  <SCORE.SYSTEM.DIHEDRAL>
6.75257

>  <SCORE.SYSTEM.POLAR>
-4.02745

>  <SCORE.SYSTEM.REPUL>
0.0387788

>  <SCORE.SYSTEM.VDW>
2.81606

>  <SCORE.SYSTEM.norm>
-0.24357

>  <SCORE.heavy>
30

>  <SCORE.norm>
-1.85066

$$$$
F3406-3354
  rDOCK(R)          3D
libRbt.so/2013.1/901 2013/11/27
 30 34  0  0  0  0  0  0  0  0999 V2000
  -24.7491   21.6905  -12.9541 C   0  0  0  0  0  0
  -23.8882   21.8624  -11.8611 O   0  0  0  0  0  0
  -22.6057   22.3257  -11.9649 C   0  0  0  0  0  0
  -21.5453   21.9959  -12.8417 C   0  0  0  0  0  0
  -20.4616   22.9271  -12.8417 C   0  0  0  0  0  0
  -20.3888   24.0546  -12.0086 C   0  0  0  0  0  0
  -21.4043   24.3013  -11.1111 C   0  0  0  0  0  0
  -22.4982   23.4480  -11.1037 C   0  0  0  0  0  0
  -21.4778   20.9139  -13.7191 N   0  0  0  0  0  0
  -20.3629   20.8320  -14.6841 C   0  0  0  0  0  0
  -20.5318   19.5909  -15.5884 C   0  0  0  0  0  0
  -20.3633   18.4442  -14.7334 N   0  0  0  0  0  0
  -21.4309   18.3696  -13.7123 C   0  0  0  0  0  0
  -22.2739   19.6744  -13.5848 C   0  0  0  0  0  0
  -19.2234   17.6528  -14.6054 C   0  0  0  0  0  0
  -19.3340   16.7535  -13.7222 O   0  0  0  0  0  0
  -17.9269   17.7828  -15.3523 C   0  0  0  0  0  0
  -16.8905   17.0378  -15.9730 C   0  0  0  0  0  0
  -16.6936   15.6238  -16.0850 N   0  0  0  0  0  0
  -15.7272   14.9721  -16.8354 C   0  0  0  0  0  0
  -15.7270   13.6405  -16.4699 C   0  0  0  0  0  0
  -16.8204   13.4557  -15.6001 C   0  0  0  0  0  0
  -17.5411   14.6327  -15.6417 C   0  0  0  0  0  0
  -15.9305   17.8642  -16.6902 C   0  0  0  0  0  0
  -16.1631   19.2095  -16.4913 C   0  0  0  0  0  0
  -17.4483   19.4914  -15.4505 S   0  0  0  0  0  0
  -15.4902   20.2399  -17.0441 N   0  0  0  0  0  0
  -14.5248   19.8730  -17.9070 C   0  0  0  0  0  0
  -14.1823   18.5713  -18.2112 C   0  0  0  0  0  0
  -14.8818   17.5441  -17.5890 C   0  0  0  0  0  0
  1  2  1  0  0  0
  2  3  1  0  0  0
  3  4  2  0  0  0
  3  8  1  0  0  0
  4  5  1  0  0  0
  4  9  1  0  0  0
  5  6  2  0  0  0
  6  7  1  0  0  0
  7  8  2  0  0  0
  9 10  1  0  0  0
  9 14  1  0  0  0
 10 11  1  0  0  0
 11 12  1  0  0  0
 12 13  1  0  0  0
 12 15  1  0  0  0
 13 14  1  0  0  0
 15 16  2  0  0  0
 15 17  1  0  0  0
 17 18  2  0  0  0
 17 26  1  0  0  0
 18 19  1  0  0  0
 18 24  1  0  0  0
 19 20  1  0  0  0
 19 23  1  0  0  0
 20 21  2  0  0  0
 21 22  1  0  0  0
 22 23  2  0  0  0
 24 25  2  0  0  0
 24 30  1  0  0  0
 25 26  1  0  0  0
 25 27  1  0  0  0
 27 28  2  0  0  0
 28 29  1  0  0  0
 29 30  2  0  0  0
M  END
>  <CHROM.0>
179.53614189,-168.08148872,-45.77460872,-62.27628957,-30.86187373,62.26149469
83.29596514,-160.95778039

>  <CHROM.1>
-46.17492082,172.04720239,-140.56515737,172.36509130,-18.96981674,19.19027129
-14.74254498,2.44693503,0.52252776,0.09981543

>  <Name>
F3406-3354

>  <RI>
3.24878e+07

>  <Rbt.Current_Directory>
/home/adria/Escritorio/rDock_CMTR_LC/2pxcA_model/inputs_sah

>  <Rbt.Executable>
rbdock ($Id: //depot/dev/client3/rdock/2013.1/src/exe/rbdock.cxx#4 $)

>  <Rbt.Library>
libRbt.so (2013.1, Build901 2013/11/27)

>  <Rbt.Parameter_File>
/home/adria/Escritorio/rDock_2013.1_src/data/scripts/dock.prm

>  <Rbt.Receptor>
sah_rdock.prm

>  <SCORE>
-56.2818

>  <SCORE.INTER>
-17.5553

>  <SCORE.INTER.CONST>
1

>  <SCORE.INTER.POLAR>
-0.969868

>  <SCORE.INTER.REPUL>
0

>  <SCORE.INTER.ROT>
4

>  <SCORE.INTER.VDW>
-23.6578

>  <SCORE.INTER.norm>
-0.585177

>  <SCORE.INTRA>
-33.0459

>  <SCORE.INTRA.DIHEDRAL>
-67.1535

>  <SCORE.INTRA.DIHEDRAL.0>
77.0836

>  <SCORE.INTRA.POLAR>
0

>  <SCORE.INTRA.POLAR.0>
0

>  <SCORE.INTRA.REPUL>
0

>  <SCORE.INTRA.REPUL.0>
0

>  <SCORE.INTRA.VDW>
0.530875

>  <SCORE.INTRA.VDW.0>
0.58543

>  <SCORE.INTRA.norm>
-1.10153

>  <SCORE.RESTR>
0

>  <SCORE.RESTR.CAVITY>
0

>  <SCORE.RESTR.norm>
0

>  <SCORE.SYSTEM>
-5.68068

>  <SCORE.SYSTEM.CONST>
0

>  <SCORE.SYSTEM.DIHEDRAL>
6.32423

>  <SCORE.SYSTEM.POLAR>
-3.64522

>  <SCORE.SYSTEM.VDW>
3.55096

>  <SCORE.SYSTEM.norm>
-0.189356

>  <SCORE.heavy>
30

>  <SCORE.norm>
-1.87606

$$$$
F3406-3354
  rDOCK(R)          3D
libRbt.so/2013.1/901 2013/11/27
 30 34  0  0  0  0  0  0  0  0999 V2000
  -25.9123   19.8255  -14.7498 C   0  0  0  0  0  0
  -25.8658   18.8547  -13.7395 O   0  0  0  0  0  0
  -24.7419   18.5538  -13.0207 C   0  0  0  0  0  0
  -23.3644   18.6427  -13.3315 C   0  0  0  0  0  0
  -22.4922   18.5397  -12.2044 C   0  0  0  0  0  0
  -22.9248   18.3058  -10.8896 C   0  0  0  0  0  0
  -24.2694   18.1464  -10.6363 C   0  0  0  0  0  0
  -25.1588   18.2800  -11.6925 C   0  0  0  0  0  0
  -22.7918   18.8677  -14.5831 N   0  0  0  0  0  0
  -21.4079   19.3766  -14.6659 C   0  0  0  0  0  0
  -21.0134   19.6084  -16.1414 C   0  0  0  0  0  0
  -20.9636   18.3057  -16.7539 N   0  0  0  0  0  0
  -22.2965   17.6646  -16.7701 C   0  0  0  0  0  0
  -23.3472   18.3710  -15.8610 C   0  0  0  0  0  0
  -19.8254   17.5486  -17.0253 C   0  0  0  0  0  0
  -20.0855   16.4058  -17.5020 O   0  0  0  0  0  0
  -18.3923   17.9264  -16.7827 C   0  0  0  0  0  0
  -17.1134   17.3987  -16.4659 C   0  0  0  0  0  0
  -16.6979   16.0563  -16.1904 N   0  0  0  0  0  0
  -17.5139   14.9512  -16.0039 C   0  0  0  0  0  0
  -16.7169   13.8236  -16.0143 C   0  0  0  0  0  0
  -15.3801   14.2689  -16.0475 C   0  0  0  0  0  0
  -15.4306   15.6351  -15.8535 C   0  0  0  0  0  0
  -16.0454   18.3857  -16.5307 C   0  0  0  0  0  0
  -16.5349   19.6565  -16.7521 C   0  0  0  0  0  0
  -18.2101   19.6934  -16.8346 S   0  0  0  0  0  0
  -15.8159   20.7871  -16.9100 N   0  0  0  0  0  0
  -14.4828   20.6051  -16.8834 C   0  0  0  0  0  0
  -13.8487   19.3967  -16.6784 C   0  0  0  0  0  0
  -14.6335   18.2660  -16.4858 C   0  0  0  0  0  0
  1  2  1  0  0  0
  2  3  1  0  0  0
  3  4  2  0  0  0
  3  8  1  0  0  0
  4  5  1  0  0  0
  4  9  1  0  0  0
  5  6  2  0  0  0
  6  7  1  0  0  0
  7  8  2  0  0  0
  9 10  1  0  0  0
  9 14  1  0  0  0
 10 11  1  0  0  0
 11 12  1  0  0  0
 12 13  1  0  0  0
 12 15  1  0  0  0
 13 14  1  0  0  0
 15 16  2  0  0  0
 15 17  1  0  0  0
 17 18  2  0  0  0
 17 26  1  0  0  0
 18 19  1  0  0  0
 18 24  1  0  0  0
 19 20  1  0  0  0
 19 23  1  0  0  0
 20 21  2  0  0  0
 21 22  1  0  0  0
 22 23  2  0  0  0
 24 25  2  0  0  0
 24 30  1  0  0  0
 25 26  1  0  0  0
 25 27  1  0  0  0
 27 28  2  0  0  0
 28 29  1  0  0  0
 29 30  2  0  0  0
M  END
>  <CHROM.0>
-178.71067083,-70.45507664,-7.30228081,65.35561847,167.95129802,-59.20272576
83.44738335,-158.97767069

>  <CHROM.1>
-27.83896757,159.45487247,148.78193880,-8.91567260,-19.80051436,18.15432804
-15.40912060,-3.14027076,-0.38862135,2.86926542

>  <Name>
F3406-3354

>  <RI>
3.24878e+07

>  <Rbt.Current_Directory>
/home/adria/Escritorio/rDock_CMTR_LC/2pxcA_model/inputs_sah

>  <Rbt.Executable>
rbdock ($Id: //depot/dev/client3/rdock/2013.1/src/exe/rbdock.cxx#4 $)

>  <Rbt.Library>
libRbt.so (2013.1, Build901 2013/11/27)

>  <Rbt.Parameter_File>
/home/adria/Escritorio/rDock_2013.1_src/data/scripts/dock.prm

>  <Rbt.Receptor>
sah_rdock.prm

>  <SCORE>
-40.2428

>  <SCORE.INTER>
-5.49129

>  <SCORE.INTER.CONST>
1

>  <SCORE.INTER.POLAR>
-0.604985

>  <SCORE.INTER.REPUL>
0.130905

>  <SCORE.INTER.ROT>
4

>  <SCORE.INTER.VDW>
-13.4889

>  <SCORE.INTER.norm>
-0.183043

>  <SCORE.INTRA>
-32.8174

>  <SCORE.INTRA.DIHEDRAL>
-69.4767

>  <SCORE.INTRA.DIHEDRAL.0>
77.0836

>  <SCORE.INTRA.POLAR>
0

>  <SCORE.INTRA.POLAR.0>
0

>  <SCORE.INTRA.REPUL>
0

>  <SCORE.INTRA.REPUL.0>
0

>  <SCORE.INTRA.VDW>
1.921

>  <SCORE.INTRA.VDW.0>
0.58543

>  <SCORE.INTRA.norm>
-1.09391

>  <SCORE.RESTR>
0

>  <SCORE.RESTR.CAVITY>
0

>  <SCORE.RESTR.norm>
0

>  <SCORE.SYSTEM>
-1.93411

>  <SCORE.SYSTEM.CONST>
0

>  <SCORE.SYSTEM.DIHEDRAL>
6.65195

>  <SCORE.SYSTEM.POLAR>
-4.45406

>  <SCORE.SYSTEM.REPUL>
0.0336778

>  <SCORE.SYSTEM.VDW>
9.71535

>  <SCORE.SYSTEM.norm>
-0.0644703

>  <SCORE.heavy>
30

>  <SCORE.norm>
-1.34143

$$$$
F3406-3354
  rDOCK(R)          3D
libRbt.so/2013.1/901 2013/11/27
 30 34  0  0  0  0  0  0  0  0999 V2000
  -24.0434   24.3722  -13.5300 C   0  0  0  0  0  0
  -24.8880   23.4211  -12.9407 O   0  0  0  0  0  0
  -24.8090   23.0375  -11.6304 C   0  0  0  0  0  0
  -23.7079   22.8380  -10.7644 C   0  0  0  0  0  0
  -24.0482   22.7508   -9.3794 C   0  0  0  0  0  0
  -25.3612   22.7914   -8.8844 C   0  0  0  0  0  0
  -26.4144   22.9081   -9.7646 C   0  0  0  0  0  0
  -26.1314   23.0384  -11.1164 C   0  0  0  0  0  0
  -22.3587   22.7736  -11.1117 N   0  0  0  0  0  0
  -21.7138   21.4547  -11.2715 C   0  0  0  0  0  0
  -20.2129   21.6314  -11.5917 C   0  0  0  0  0  0
  -20.1485   22.2332  -12.8986 N   0  0  0  0  0  0
  -20.7416   23.5882  -12.8997 C   0  0  0  0  0  0
  -21.5679   23.9160  -11.6194 C   0  0  0  0  0  0
  -19.8814   21.5910  -14.1063 C   0  0  0  0  0  0
  -19.9619   22.3572  -15.1100 O   0  0  0  0  0  0
  -19.5602   20.1400  -14.3230 C   0  0  0  0  0  0
  -20.0633   18.8241  -14.1503 C   0  0  0  0  0  0
  -21.2847   18.3594  -13.5649 N   0  0  0  0  0  0
  -22.2523   19.1252  -12.9330 C   0  0  0  0  0  0
  -23.3675   18.3337  -12.7419 C   0  0  0  0  0  0
  -23.0087   17.0244  -13.1204 C   0  0  0  0  0  0
  -21.6441   17.0508  -13.3297 C   0  0  0  0  0  0
  -19.2299   17.7988  -14.7613 C   0  0  0  0  0  0
  -18.0541   18.3229  -15.2576 C   0  0  0  0  0  0
  -17.9140   19.9698  -14.9704 S   0  0  0  0  0  0
  -17.0859   17.6583  -15.9216 N   0  0  0  0  0  0
  -17.3542   16.3573  -16.1380 C   0  0  0  0  0  0
  -18.4871   15.6965  -15.7088 C   0  0  0  0  0  0
  -19.4396   16.4169  -14.9981 C   0  0  0  0  0  0
  1  2  1  0  0  0
  2  3  1  0  0  0
  3  4  2  0  0  0
  3  8  1  0  0  0
  4  5  1  0  0  0
  4  9  1  0  0  0
  5  6  2  0  0  0
  6  7  1  0  0  0
  7  8  2  0  0  0
  9 10  1  0  0  0
  9 14  1  0  0  0
 10 11  1  0  0  0
 11 12  1  0  0  0
 12 13  1  0  0  0
 12 15  1  0  0  0
 13 14  1  0  0  0
 15 16  2  0  0  0
 15 17  1  0  0  0
 17 18  2  0  0  0
 17 26  1  0  0  0
 18 19  1  0  0  0
 18 24  1  0  0  0
 19 20  1  0  0  0
 19 23  1  0  0  0
 20 21  2  0  0  0
 21 22  1  0  0  0
 22 23  2  0  0  0
 24 25  2  0  0  0
 24 30  1  0  0  0
 25 26  1  0  0  0
 25 27  1  0  0  0
 27 28  2  0  0  0
 28 29  1  0  0  0
 29 30  2  0  0  0
M  END
>  <CHROM.0>
-177.67479635,-73.13599983,-165.78663612,64.72852663,-30.81022859,-58.44499738
83.78189504,-158.67782758

>  <CHROM.1>
-37.14011408,-98.44237270,59.94648308,-4.58862953,-21.35022253,20.57352799
-13.10634809,-2.42231895,-0.52196264,-2.99434240

>  <Name>
F3406-3354

>  <RI>
3.24878e+07

>  <Rbt.Current_Directory>
/home/adria/Escritorio/rDock_CMTR_LC/2pxcA_model/inputs_sah

>  <Rbt.Executable>
rbdock ($Id: //depot/dev/client3/rdock/2013.1/src/exe/rbdock.cxx#4 $)

>  <Rbt.Library>
libRbt.so (2013.1, Build901 2013/11/27)

>  <Rbt.Parameter_File>
/home/adria/Escritorio/rDock_2013.1_src/data/scripts/dock.prm

>  <Rbt.Receptor>
sah_rdock.prm

>  <SCORE>
-46.232

>  <SCORE.INTER>
-11.0826

>  <SCORE.INTER.CONST>
1

>  <SCORE.INTER.POLAR>
0

>  <SCORE.INTER.REPUL>
0

>  <SCORE.INTER.ROT>
4

>  <SCORE.INTER.VDW>
-20.4826

>  <SCORE.INTER.norm>
-0.369421

>  <SCORE.INTRA>
-28.182

>  <SCORE.INTRA.DIHEDRAL>
-52.7015

>  <SCORE.INTRA.DIHEDRAL.0>
77.0836

>  <SCORE.INTRA.POLAR>
0

>  <SCORE.INTRA.POLAR.0>
0

>  <SCORE.INTRA.REPUL>
0

>  <SCORE.INTRA.REPUL.0>
0

>  <SCORE.INTRA.VDW>
-1.83125

>  <SCORE.INTRA.VDW.0>
0.58543

>  <SCORE.INTRA.norm>
-0.9394

>  <SCORE.RESTR>
0

>  <SCORE.RESTR.CAVITY>
0

>  <SCORE.RESTR.norm>
0

>  <SCORE.SYSTEM>
-6.96738

>  <SCORE.SYSTEM.CONST>
0

>  <SCORE.SYSTEM.DIHEDRAL>
6.74323

>  <SCORE.SYSTEM.POLAR>
-3.95414

>  <SCORE.SYSTEM.REPUL>
0.0387775

>  <SCORE.SYSTEM.VDW>
2.91118

>  <SCORE.SYSTEM.norm>
-0.232246

>  <SCORE.heavy>
30

>  <SCORE.norm>
-1.54107

$$$$
F3406-3354
  rDOCK(R)          3D
libRbt.so/2013.1/901 2013/11/27
 30 34  0  0  0  0  0  0  0  0999 V2000
  -15.1294   16.0409  -18.3596 C   0  0  0  0  0  0
  -15.0206   15.4112  -17.1119 O   0  0  0  0  0  0
  -16.0866   14.9244  -16.4068 C   0  0  0  0  0  0
  -17.3587   15.4695  -16.1126 C   0  0  0  0  0  0
  -18.3125   14.5245  -15.6236 C   0  0  0  0  0  0
  -18.0306   13.1709  -15.3814 C   0  0  0  0  0  0
  -16.7585   12.6924  -15.6056 C   0  0  0  0  0  0
  -15.8089   13.5629  -16.1205 C   0  0  0  0  0  0
  -17.7785   16.7866  -16.2970 N   0  0  0  0  0  0
  -19.1976   17.1323  -16.0781 C   0  0  0  0  0  0
  -19.4384   18.6233  -16.4027 C   0  0  0  0  0  0
  -18.7189   19.3734  -15.4055 N   0  0  0  0  0  0
  -17.2603   19.1502  -15.5091 C   0  0  0  0  0  0
  -16.8695   17.9472  -16.4198 C   0  0  0  0  0  0
  -19.2489   19.9866  -14.2718 C   0  0  0  0  0  0
  -18.3701   20.5152  -13.5307 O   0  0  0  0  0  0
  -20.6884   20.0443  -13.8476 C   0  0  0  0  0  0
  -21.6880   20.9059  -13.3251 C   0  0  0  0  0  0
  -21.6225   22.2792  -12.9245 N   0  0  0  0  0  0
  -22.6846   23.0987  -12.5752 C   0  0  0  0  0  0
  -22.1700   24.2534  -12.0198 C   0  0  0  0  0  0
  -20.7714   24.1971  -12.1837 C   0  0  0  0  0  0
  -20.5291   23.1129  -13.0037 C   0  0  0  0  0  0
  -23.0126   20.3035  -13.2881 C   0  0  0  0  0  0
  -22.9793   18.9705  -13.6422 C   0  0  0  0  0  0
  -21.4238   18.4308  -13.9641 S   0  0  0  0  0  0
  -24.0318   18.1339  -13.7542 N   0  0  0  0  0  0
  -25.2262   18.7117  -13.5287 C   0  0  0  0  0  0
  -25.4173   20.0314  -13.1735 C   0  0  0  0  0  0
  -24.2986   20.8446  -13.0366 C   0  0  0  0  0  0
  1  2  1  0  0  0
  2  3  1  0  0  0
  3  4  2  0  0  0
  3  8  1  0  0  0
  4  5  1  0  0  0
  4  9  1  0  0  0
  5  6  2  0  0  0
  6  7  1  0  0  0
  7  8  2  0  0  0
  9 10  1  0  0  0
  9 14  1  0  0  0
 10 11  1  0  0  0
 11 12  1  0  0  0
 12 13  1  0  0  0
 12 15  1  0  0  0
 13 14  1  0  0  0
 15 16  2  0  0  0
 15 17  1  0  0  0
 17 18  2  0  0  0
 17 26  1  0  0  0
 18 19  1  0  0  0
 18 24  1  0  0  0
 19 20  1  0  0  0
 19 23  1  0  0  0
 20 21  2  0  0  0
 21 22  1  0  0  0
 22 23  2  0  0  0
 24 25  2  0  0  0
 24 30  1  0  0  0
 25 26  1  0  0  0
 25 27  1  0  0  0
 27 28  2  0  0  0
 28 29  1  0  0  0
 29 30  2  0  0  0
M  END
>  <CHROM.0>
-177.25590553,-72.82703184,-167.94907146,64.84415891,168.39312671,-58.06017130
-156.98450919,-164.51636064

>  <CHROM.1>
-45.37016421,172.82587657,-136.73148535,171.47819882,-19.85278378,18.59091470
-14.64513744,-0.83577373,0.29417894,0.24046745

>  <Name>
F3406-3354

>  <RI>
3.24878e+07

>  <Rbt.Current_Directory>
/home/adria/Escritorio/rDock_CMTR_LC/2pxcA_model/inputs_sah

>  <Rbt.Executable>
rbdock ($Id: //depot/dev/client3/rdock/2013.1/src/exe/rbdock.cxx#4 $)

>  <Rbt.Library>
libRbt.so (2013.1, Build901 2013/11/27)

>  <Rbt.Parameter_File>
/home/adria/Escritorio/rDock_2013.1_src/data/scripts/dock.prm

>  <Rbt.Receptor>
sah_rdock.prm

>  <SCORE>
-44.7447

>  <SCORE.INTER>
-9.46464

>  <SCORE.INTER.CONST>
1

>  <SCORE.INTER.POLAR>
0

>  <SCORE.INTER.REPUL>
0

>  <SCORE.INTER.ROT>
4

>  <SCORE.INTER.VDW>
-18.8646

>  <SCORE.INTER.norm>
-0.315488

>  <SCORE.INTRA>
-32.9255

>  <SCORE.INTRA.DIHEDRAL>
-66.5272

>  <SCORE.INTRA.DIHEDRAL.0>
77.0836

>  <SCORE.INTRA.POLAR>
0

>  <SCORE.INTRA.POLAR.0>
0

>  <SCORE.INTRA.REPUL>
0

>  <SCORE.INTRA.REPUL.0>
0

>  <SCORE.INTRA.VDW>
0.338098

>  <SCORE.INTRA.VDW.0>
0.58543

>  <SCORE.INTRA.norm>
-1.09752

>  <SCORE.RESTR>
0

>  <SCORE.RESTR.CAVITY>
0

>  <SCORE.RESTR.norm>
0

>  <SCORE.SYSTEM>
-2.35452

>  <SCORE.SYSTEM.CONST>
0

>  <SCORE.SYSTEM.DIHEDRAL>
3.4332

>  <SCORE.SYSTEM.POLAR>
-3.89146

>  <SCORE.SYSTEM.REPUL>
0.0382252

>  <SCORE.SYSTEM.VDW>
8.96871

>  <SCORE.SYSTEM.norm>
-0.0784839

>  <SCORE.heavy>
30

>  <SCORE.norm>
-1.49149

$$$$
F3406-3354
  rDOCK(R)          3D
libRbt.so/2013.1/901 2013/11/27
 30 34  0  0  0  0  0  0  0  0999 V2000
  -18.3962   13.4466  -15.9868 C   0  0  0  0  0  0
  -17.2594   14.2655  -15.9373 O   0  0  0  0  0  0
  -16.5361   14.6350  -17.0376 C   0  0  0  0  0  0
  -16.3837   15.8757  -17.7005 C   0  0  0  0  0  0
  -15.2911   15.9290  -18.6197 C   0  0  0  0  0  0
  -14.4537   14.8418  -18.9155 C   0  0  0  0  0  0
  -14.6809   13.6262  -18.3086 C   0  0  0  0  0  0
  -15.7045   13.5367  -17.3765 C   0  0  0  0  0  0
  -17.1376   17.0340  -17.5129 N   0  0  0  0  0  0
  -18.4656   16.9387  -16.8738 C   0  0  0  0  0  0
  -19.1368   18.3294  -16.8313 C   0  0  0  0  0  0
  -18.3501   19.1283  -15.9274 N   0  0  0  0  0  0
  -16.9799   19.3378  -16.4436 C   0  0  0  0  0  0
  -16.6074   18.4092  -17.6388 C   0  0  0  0  0  0
  -18.6454   19.4297  -14.5992 C   0  0  0  0  0  0
  -17.7358   20.0928  -14.0214 O   0  0  0  0  0  0
  -19.8631   19.0302  -13.8161 C   0  0  0  0  0  0
  -20.8101   19.4958  -12.8670 C   0  0  0  0  0  0
  -20.9129   20.7523  -12.1878 N   0  0  0  0  0  0
  -19.9876   21.7846  -12.1965 C   0  0  0  0  0  0
  -20.5800   22.8957  -11.6298 C   0  0  0  0  0  0
  -21.8289   22.4802  -11.1259 C   0  0  0  0  0  0
  -21.8424   21.1037  -11.2339 C   0  0  0  0  0  0
  -21.9024   18.5631  -12.6306 C   0  0  0  0  0  0
  -21.7019   17.3637  -13.2823 C   0  0  0  0  0  0
  -20.2445   17.3199  -14.1119 S   0  0  0  0  0  0
  -22.5387   16.3057  -13.3106 N   0  0  0  0  0  0
  -23.6986   16.4980  -12.6558 C   0  0  0  0  0  0
  -24.0423   17.6424  -11.9655 C   0  0  0  0  0  0
  -23.1317   18.6919  -11.9363 C   0  0  0  0  0  0
  1  2  1  0  0  0
  2  3  1  0  0  0
  3  4  2  0  0  0
  3  8  1  0  0  0
  4  5  1  0  0  0
  4  9  1  0  0  0
  5  6  2  0  0  0
  6  7  1  0  0  0
  7  8  2  0  0  0
  9 10  1  0  0  0
  9 14  1  0  0  0
 10 11  1  0  0  0
 11 12  1  0  0  0
 12 13  1  0  0  0
 12 15  1  0  0  0
 13 14  1  0  0  0
 15 16  2  0  0  0
 15 17  1  0  0  0
 17 18  2  0  0  0
 17 26  1  0  0  0
 18 19  1  0  0  0
 18 24  1  0  0  0
 19 20  1  0  0  0
 19 23  1  0  0  0
 20 21  2  0  0  0
 21 22  1  0  0  0
 22 23  2  0  0  0
 24 25  2  0  0  0
 24 30  1  0  0  0
 25 26  1  0  0  0
 25 27  1  0  0  0
 27 28  2  0  0  0
 28 29  1  0  0  0
 29 30  2  0  0  0
M  END
>  <CHROM.0>
-59.65301619,-70.60246668,-45.45260149,64.40528501,-29.04326876,-59.28517013
-36.96946242,-156.50055630

>  <CHROM.1>
109.80917543,-19.19132246,-139.51169098,-8.02165293,-19.17166466,17.78235950
-14.82222518,0.72874364,-0.60581462,-2.85206698

>  <Name>
F3406-3354

>  <RI>
3.24878e+07

>  <Rbt.Current_Directory>
/home/adria/Escritorio/rDock_CMTR_LC/2pxcA_model/inputs_sah

>  <Rbt.Executable>
rbdock ($Id: //depot/dev/client3/rdock/2013.1/src/exe/rbdock.cxx#4 $)

>  <Rbt.Library>
libRbt.so (2013.1, Build901 2013/11/27)

>  <Rbt.Parameter_File>
/home/adria/Escritorio/rDock_2013.1_src/data/scripts/dock.prm

>  <Rbt.Receptor>
sah_rdock.prm

>  <SCORE>
-53.4644

>  <SCORE.INTER>
-13.639

>  <SCORE.INTER.CONST>
1

>  <SCORE.INTER.POLAR>
0

>  <SCORE.INTER.REPUL>
0

>  <SCORE.INTER.ROT>
4

>  <SCORE.INTER.VDW>
-23.039

>  <SCORE.INTER.norm>
-0.454634

>  <SCORE.INTRA>
-32.3758

>  <SCORE.INTRA.DIHEDRAL>
-63.8813

>  <SCORE.INTRA.DIHEDRAL.0>
77.0836

>  <SCORE.INTRA.POLAR>
0

>  <SCORE.INTRA.POLAR.0>
0

>  <SCORE.INTRA.REPUL>
0

>  <SCORE.INTRA.REPUL.0>
0

>  <SCORE.INTRA.VDW>
-0.435113

>  <SCORE.INTRA.VDW.0>
0.58543

>  <SCORE.INTRA.norm>
-1.07919

>  <SCORE.RESTR>
0

>  <SCORE.RESTR.CAVITY>
0

>  <SCORE.RESTR.norm>
0

>  <SCORE.SYSTEM>
-7.44958

>  <SCORE.SYSTEM.CONST>
0

>  <SCORE.SYSTEM.DIHEDRAL>
6.83662

>  <SCORE.SYSTEM.POLAR>
-4.00126

>  <SCORE.SYSTEM.REPUL>
0.033976

>  <SCORE.SYSTEM.VDW>
2.56651

>  <SCORE.SYSTEM.norm>
-0.248319

>  <SCORE.heavy>
30

>  <SCORE.norm>
-1.78215

$$$$
F3406-3354
  rDOCK(R)          3D
libRbt.so/2013.1/901 2013/11/27
 30 34  0  0  0  0  0  0  0  0999 V2000
  -18.8829   21.7880  -15.3595 C   0  0  0  0  0  0
  -19.1358   20.8299  -16.3512 O   0  0  0  0  0  0
  -18.7209   19.5287  -16.2792 C   0  0  0  0  0  0
  -19.0950   18.4586  -15.4326 C   0  0  0  0  0  0
  -18.6698   17.1697  -15.8792 C   0  0  0  0  0  0
  -17.8892   16.9484  -17.0248 C   0  0  0  0  0  0
  -17.4774   18.0225  -17.7826 C   0  0  0  0  0  0
  -17.9006   19.2906  -17.4121 C   0  0  0  0  0  0
  -19.8603   18.5277  -14.2686 N   0  0  0  0  0  0
  -19.6582   19.6535  -13.3344 C   0  0  0  0  0  0
  -20.5640   19.4853  -12.0943 C   0  0  0  0  0  0
  -21.9180   19.6340  -12.5622 N   0  0  0  0  0  0
  -22.2869   18.5535  -13.5027 C   0  0  0  0  0  0
  -21.0728   17.7198  -14.0129 C   0  0  0  0  0  0
  -22.7241   20.7657  -12.4539 C   0  0  0  0  0  0
  -23.8477   20.6369  -13.0212 O   0  0  0  0  0  0
  -22.3883   22.0721  -11.7935 C   0  0  0  0  0  0
  -22.8981   23.0747  -10.9278 C   0  0  0  0  0  0
  -24.1765   23.2022  -10.2954 N   0  0  0  0  0  0
  -25.2965   22.4138  -10.5094 C   0  0  0  0  0  0
  -26.2228   22.7104   -9.5293 C   0  0  0  0  0  0
  -25.7161   23.8101   -8.8080 C   0  0  0  0  0  0
  -24.6108   24.2475   -9.5107 C   0  0  0  0  0  0
  -21.9117   24.0793  -10.5581 C   0  0  0  0  0  0
  -20.7275   23.9121  -11.2461 C   0  0  0  0  0  0
  -20.7913   22.6353  -12.3324 S   0  0  0  0  0  0
  -19.5993   24.6389  -11.1083 N   0  0  0  0  0  0
  -19.6650   25.5909  -10.1593 C   0  0  0  0  0  0
  -20.7749   25.8708   -9.3886 C   0  0  0  0  0  0
  -21.9246   25.1170   -9.5923 C   0  0  0  0  0  0
  1  2  1  0  0  0
  2  3  1  0  0  0
  3  4  2  0  0  0
  3  8  1  0  0  0
  4  5  1  0  0  0
  4  9  1  0  0  0
  5  6  2  0  0  0
  6  7  1  0  0  0
  7  8  2  0  0  0
  9 10  1  0  0  0
  9 14  1  0  0  0
 10 11  1  0  0  0
 11 12  1  0  0  0
 12 13  1  0  0  0
 12 15  1  0  0  0
 13 14  1  0  0  0
 15 16  2  0  0  0
 15 17  1  0  0  0
 17 18  2  0  0  0
 17 26  1  0  0  0
 18 19  1  0  0  0
 18 24  1  0  0  0
 19 20  1  0  0  0
 19 23  1  0  0  0
 20 21  2  0  0  0
 21 22  1  0  0  0
 22 23  2  0  0  0
 24 25  2  0  0  0
 24 30  1  0  0  0
 25 26  1  0  0  0
 25 27  1  0  0  0
 27 28  2  0  0  0
 28 29  1  0  0  0
 29 30  2  0  0  0
M  END
>  <CHROM.0>
-178.08385693,-166.71566240,-45.42597932,64.06556599,-30.02096449,-60.14115346
83.90760604,-165.92394023

>  <CHROM.1>
67.72586288,-39.80686560,-135.74130287,-7.70766611,-21.18574890,21.36980318
-12.77160881,-0.99557257,0.46865636,0.55864525

>  <Name>
F3406-3354

>  <RI>
3.24878e+07

>  <Rbt.Current_Directory>
/home/adria/Escritorio/rDock_CMTR_LC/2pxcA_model/inputs_sah

>  <Rbt.Executable>
rbdock ($Id: //depot/dev/client3/rdock/2013.1/src/exe/rbdock.cxx#4 $)

>  <Rbt.Library>
libRbt.so (2013.1, Build901 2013/11/27)

>  <Rbt.Parameter_File>
/home/adria/Escritorio/rDock_2013.1_src/data/scripts/dock.prm

>  <Rbt.Receptor>
sah_rdock.prm

>  <SCORE>
-49.7425

>  <SCORE.INTER>
-12.8754

>  <SCORE.INTER.CONST>
1

>  <SCORE.INTER.POLAR>
0

>  <SCORE.INTER.REPUL>
0.596336

>  <SCORE.INTER.ROT>
4

>  <SCORE.INTER.VDW>
-25.2571

>  <SCORE.INTER.norm>
-0.42918

>  <SCORE.INTRA>
-30.9898

>  <SCORE.INTRA.DIHEDRAL>
-59.6562

>  <SCORE.INTRA.DIHEDRAL.0>
77.0836

>  <SCORE.INTRA.POLAR>
0

>  <SCORE.INTRA.POLAR.0>
0

>  <SCORE.INTRA.REPUL>
0

>  <SCORE.INTRA.REPUL.0>
0

>  <SCORE.INTRA.VDW>
-1.1617

>  <SCORE.INTRA.VDW.0>
0.58543

>  <SCORE.INTRA.norm>
-1.03299

>  <SCORE.RESTR>
0

>  <SCORE.RESTR.CAVITY>
0

>  <SCORE.RESTR.norm>
0

>  <SCORE.SYSTEM>
-5.87733

>  <SCORE.SYSTEM.CONST>
0

>  <SCORE.SYSTEM.DIHEDRAL>
6.55024

>  <SCORE.SYSTEM.POLAR>
-3.65271

>  <SCORE.SYSTEM.VDW>
3.26677

>  <SCORE.SYSTEM.norm>
-0.195911

>  <SCORE.heavy>
30

>  <SCORE.norm>
-1.65808

$$$$
F3406-3354
  rDOCK(R)          3D
libRbt.so/2013.1/901 2013/11/27
 30 34  0  0  0  0  0  0  0  0999 V2000
  -23.7210   24.3957  -13.4128 C   0  0  0  0  0  0
  -23.7612   23.3251  -12.5088 O   0  0  0  0  0  0
  -24.0191   22.0311  -12.8687 C   0  0  0  0  0  0
  -23.1888   20.8897  -12.9669 C   0  0  0  0  0  0
  -23.8913   19.6494  -13.0648 C   0  0  0  0  0  0
  -25.2892   19.5358  -13.1258 C   0  0  0  0  0  0
  -26.0635   20.6750  -13.1064 C   0  0  0  0  0  0
  -25.4283   21.9007  -12.9698 C   0  0  0  0  0  0
  -21.7953   20.8505  -12.9249 N   0  0  0  0  0  0
  -21.1026   19.5529  -13.0574 C   0  0  0  0  0  0
  -19.5765   19.7475  -12.9172 C   0  0  0  0  0  0
  -19.1603   20.5060  -14.0686 N   0  0  0  0  0  0
  -19.7588   21.8587  -14.0702 C   0  0  0  0  0  0
  -20.9190   22.0362  -13.0446 C   0  0  0  0  0  0
  -18.5501   20.0153  -15.2215 C   0  0  0  0  0  0
  -18.3617   20.9012  -16.1050 O   0  0  0  0  0  0
  -18.1491   18.5982  -15.5156 C   0  0  0  0  0  0
  -17.1691   17.8035  -16.1657 C   0  0  0  0  0  0
  -16.0215   18.1787  -16.9357 N   0  0  0  0  0  0
  -15.6415   19.4619  -17.2972 C   0  0  0  0  0  0
  -14.3613   19.4008  -17.8112 C   0  0  0  0  0  0
  -14.0255   18.0355  -17.9091 C   0  0  0  0  0  0
  -15.1870   17.3391  -17.6398 C   0  0  0  0  0  0
  -17.3190   16.3772  -15.9165 C   0  0  0  0  0  0
  -18.4715   16.0988  -15.2109 C   0  0  0  0  0  0
  -19.3764   17.4748  -14.8913 S   0  0  0  0  0  0
  -18.8862   14.8901  -14.7783 N   0  0  0  0  0  0
  -18.0359   13.8824  -15.0483 C   0  0  0  0  0  0
  -16.8468   14.0077  -15.7372 C   0  0  0  0  0  0
  -16.4801   15.2684  -16.1930 C   0  0  0  0  0  0
  1  2  1  0  0  0
  2  3  1  0  0  0
  3  4  2  0  0  0
  3  8  1  0  0  0
  4  5  1  0  0  0
  4  9  1  0  0  0
  5  6  2  0  0  0
  6  7  1  0  0  0
  7  8  2  0  0  0
  9 10  1  0  0  0
  9 14  1  0  0  0
 10 11  1  0  0  0
 11 12  1  0  0  0
 12 13  1  0  0  0
 12 15  1  0  0  0
 13 14  1  0  0  0
 15 16  2  0  0  0
 15 17  1  0  0  0
 17 18  2  0  0  0
 17 26  1  0  0  0
 18 19  1  0  0  0
 18 24  1  0  0  0
 19 20  1  0  0  0
 19 23  1  0  0  0
 20 21  2  0  0  0
 21 22  1  0  0  0
 22 23  2  0  0  0
 24 25  2  0  0  0
 24 30  1  0  0  0
 25 26  1  0  0  0
 25 27  1  0  0  0
 27 28  2  0  0  0
 28 29  1  0  0  0
 29 30  2  0  0  0
M  END
>  <CHROM.0>
-59.33455722,67.29040981,-129.92529547,63.79669955,-30.83955419,-178.49493628
82.81478758,-162.76567385

>  <CHROM.1>
107.01263420,-179.44282517,-145.20906188,-4.25720532,-19.71199979,19.16325353
-14.72674114,-2.62569324,-0.45337119,3.11531484

>  <Name>
F3406-3354

>  <RI>
3.24878e+07

>  <Rbt.Current_Directory>
/home/adria/Escritorio/rDock_CMTR_LC/2pxcA_model/inputs_sah

>  <Rbt.Executable>
rbdock ($Id: //depot/dev/client3/rdock/2013.1/src/exe/rbdock.cxx#4 $)

>  <Rbt.Library>
libRbt.so (2013.1, Build901 2013/11/27)

>  <Rbt.Parameter_File>
/home/adria/Escritorio/rDock_2013.1_src/data/scripts/dock.prm

>  <Rbt.Receptor>
sah_rdock.prm

>  <SCORE>
-52.5351

>  <SCORE.INTER>
-13.5789

>  <SCORE.INTER.CONST>
1

>  <SCORE.INTER.POLAR>
0

>  <SCORE.INTER.REPUL>
0

>  <SCORE.INTER.ROT>
4

>  <SCORE.INTER.VDW>
-22.9789

>  <SCORE.INTER.norm>
-0.452631

>  <SCORE.INTRA>
-32.2848

>  <SCORE.INTRA.DIHEDRAL>
-66.5685

>  <SCORE.INTRA.DIHEDRAL.0>
77.0836

>  <SCORE.INTRA.POLAR>
0

>  <SCORE.INTRA.POLAR.0>
0

>  <SCORE.INTRA.REPUL>
0

>  <SCORE.INTRA.REPUL.0>
0

>  <SCORE.INTRA.VDW>
0.999433

>  <SCORE.INTRA.VDW.0>
0.58543

>  <SCORE.INTRA.norm>
-1.07616

>  <SCORE.RESTR>
0

>  <SCORE.RESTR.CAVITY>
0

>  <SCORE.RESTR.norm>
0

>  <SCORE.SYSTEM>
-6.67131

>  <SCORE.SYSTEM.CONST>
0

>  <SCORE.SYSTEM.DIHEDRAL>
8.7021

>  <SCORE.SYSTEM.POLAR>
-4.17747

>  <SCORE.SYSTEM.VDW>
3.18102

>  <SCORE.SYSTEM.norm>
-0.222377

>  <SCORE.heavy>
30

>  <SCORE.norm>
-1.75117

$$$$
F3406-3354
  rDOCK(R)          3D
libRbt.so/2013.1/901 2013/11/27
 30 34  0  0  0  0  0  0  0  0999 V2000
  -24.9258   23.3459   -8.5895 C   0  0  0  0  0  0
  -23.5842   23.6743   -8.3497 O   0  0  0  0  0  0
  -22.7274   24.1354   -9.3108 C   0  0  0  0  0  0
  -22.4109   23.6623  -10.6062 C   0  0  0  0  0  0
  -21.7086   24.5981  -11.4263 C   0  0  0  0  0  0
  -21.2932   25.8686  -10.9974 C   0  0  0  0  0  0
  -21.5506   26.2651   -9.7036 C   0  0  0  0  0  0
  -22.2670   25.4070   -8.8820 C   0  0  0  0  0  0
  -22.7523   22.4307  -11.1644 N   0  0  0  0  0  0
  -22.3227   22.1154  -12.5418 C   0  0  0  0  0  0
  -22.8675   20.7334  -12.9660 C   0  0  0  0  0  0
  -22.1942   19.7647  -12.1398 N   0  0  0  0  0  0
  -22.5438   19.9350  -10.7127 C   0  0  0  0  0  0
  -23.2711   21.2771  -10.3974 C   0  0  0  0  0  0
  -21.1136   18.9613  -12.4990 C   0  0  0  0  0  0
  -20.6767   18.2532  -11.5457 O   0  0  0  0  0  0
  -20.4283   18.8873  -13.8333 C   0  0  0  0  0  0
  -20.6590   18.8896  -15.2337 C   0  0  0  0  0  0
  -21.8797   18.9476  -15.9801 N   0  0  0  0  0  0
  -23.1699   18.8829  -15.4772 C   0  0  0  0  0  0
  -24.0426   19.2249  -16.4912 C   0  0  0  0  0  0
  -23.2755   19.3420  -17.6678 C   0  0  0  0  0  0
  -22.0173   18.8713  -17.3485 C   0  0  0  0  0  0
  -19.4372   18.9370  -16.0236 C   0  0  0  0  0  0
  -18.3116   18.8284  -15.2333 C   0  0  0  0  0  0
  -18.6843   18.6288  -13.6098 S   0  0  0  0  0  0
  -17.0263   18.8817  -15.6398 N   0  0  0  0  0  0
  -16.8699   19.1075  -16.9572 C   0  0  0  0  0  0
  -17.8972   19.2436  -17.8686 C   0  0  0  0  0  0
  -19.2042   19.1461  -17.4064 C   0  0  0  0  0  0
  1  2  1  0  0  0
  2  3  1  0  0  0
  3  4  2  0  0  0
  3  8  1  0  0  0
  4  5  1  0  0  0
  4  9  1  0  0  0
  5  6  2  0  0  0
  6  7  1  0  0  0
  7  8  2  0  0  0
  9 10  1  0  0  0
  9 14  1  0  0  0
 10 11  1  0  0  0
 11 12  1  0  0  0
 12 13  1  0  0  0
 12 15  1  0  0  0
 13 14  1  0  0  0
 15 16  2  0  0  0
 15 17  1  0  0  0
 17 18  2  0  0  0
 17 26  1  0  0  0
 18 19  1  0  0  0
 18 24  1  0  0  0
 19 20  1  0  0  0
 19 23  1  0  0  0
 20 21  2  0  0  0
 21 22  1  0  0  0
 22 23  2  0  0  0
 24 25  2  0  0  0
 24 30  1  0  0  0
 25 26  1  0  0  0
 25 27  1  0  0  0
 27 28  2  0  0  0
 28 29  1  0  0  0
 29 30  2  0  0  0
M  END
>  <CHROM.0>
-60.58002294,63.06278152,75.54862809,-60.85800664,168.12390763,63.52243785
-37.01025177,-159.51266392

>  <CHROM.1>
-50.00992885,-179.78244532,-39.75976059,-6.98981117,-21.29647755,20.78821030
-13.15816366,1.94338143,0.10272451,0.85887412

>  <Name>
F3406-3354

>  <RI>
3.24878e+07

>  <Rbt.Current_Directory>
/home/adria/Escritorio/rDock_CMTR_LC/2pxcA_model/inputs_sah

>  <Rbt.Executable>
rbdock ($Id: //depot/dev/client3/rdock/2013.1/src/exe/rbdock.cxx#4 $)

>  <Rbt.Library>
libRbt.so (2013.1, Build901 2013/11/27)

>  <Rbt.Parameter_File>
/home/adria/Escritorio/rDock_2013.1_src/data/scripts/dock.prm

>  <Rbt.Receptor>
sah_rdock.prm

>  <SCORE>
-51.9819

>  <SCORE.INTER>
-15.7483

>  <SCORE.INTER.CONST>
1

>  <SCORE.INTER.POLAR>
0

>  <SCORE.INTER.REPUL>
0

>  <SCORE.INTER.ROT>
4

>  <SCORE.INTER.VDW>
-25.1483

>  <SCORE.INTER.norm>
-0.524942

>  <SCORE.INTRA>
-33.998

>  <SCORE.INTRA.DIHEDRAL>
-68.4431

>  <SCORE.INTRA.DIHEDRAL.0>
77.0836

>  <SCORE.INTRA.POLAR>
0

>  <SCORE.INTRA.POLAR.0>
0

>  <SCORE.INTRA.REPUL>
0

>  <SCORE.INTRA.REPUL.0>
0

>  <SCORE.INTRA.VDW>
0.223559

>  <SCORE.INTRA.VDW.0>
0.58543

>  <SCORE.INTRA.norm>
-1.13327

>  <SCORE.RESTR>
0

>  <SCORE.RESTR.CAVITY>
0

>  <SCORE.RESTR.norm>
0

>  <SCORE.SYSTEM>
-2.23562

>  <SCORE.SYSTEM.CONST>
0

>  <SCORE.SYSTEM.DIHEDRAL>
3.06267

>  <SCORE.SYSTEM.POLAR>
-3.67853

>  <SCORE.SYSTEM.VDW>
8.74004

>  <SCORE.SYSTEM.norm>
-0.0745206

>  <SCORE.heavy>
30

>  <SCORE.norm>
-1.73273

$$$$
F3406-3354
  rDOCK(R)          3D
libRbt.so/2013.1/901 2013/11/27
 30 34  0  0  0  0  0  0  0  0999 V2000
  -18.7645   15.6224  -15.2540 C   0  0  0  0  0  0
  -19.4633   16.5054  -16.0891 O   0  0  0  0  0  0
  -19.1792   17.8388  -16.1987 C   0  0  0  0  0  0
  -19.2849   18.9103  -15.2808 C   0  0  0  0  0  0
  -18.5877   20.0961  -15.6675 C   0  0  0  0  0  0
  -17.8963   20.2462  -16.8799 C   0  0  0  0  0  0
  -17.8806   19.2075  -17.7846 C   0  0  0  0  0  0
  -18.5082   18.0206  -17.4355 C   0  0  0  0  0  0
  -19.9372   18.9078  -14.0480 N   0  0  0  0  0  0
  -19.9055   20.1227  -13.2089 C   0  0  0  0  0  0
  -20.6347   19.8651  -11.8717 C   0  0  0  0  0  0
  -22.0249   19.6812  -12.2004 N   0  0  0  0  0  0
  -22.2290   18.4741  -13.0306 C   0  0  0  0  0  0
  -20.9119   17.8819  -13.6171 C   0  0  0  0  0  0
  -23.0485   20.6185  -12.0741 C   0  0  0  0  0  0
  -24.1625   20.2059  -12.5098 O   0  0  0  0  0  0
  -22.9521   22.0156  -11.5318 C   0  0  0  0  0  0
  -23.4924   22.9010  -10.5630 C   0  0  0  0  0  0
  -24.5442   22.7144   -9.6093 N   0  0  0  0  0  0
  -25.3723   21.6096   -9.4848 C   0  0  0  0  0  0
  -26.0687   21.7277   -8.2983 C   0  0  0  0  0  0
  -25.7735   23.0035   -7.7770 C   0  0  0  0  0  0
  -25.0768   23.6661   -8.7680 C   0  0  0  0  0  0
  -22.7833   24.1692  -10.4754 C   0  0  0  0  0  0
  -21.8209   24.2868  -11.4570 C   0  0  0  0  0  0
  -21.7852   22.9599  -12.4829 S   0  0  0  0  0  0
  -20.9595   25.3106  -11.6305 N   0  0  0  0  0  0
  -21.0546   26.2793  -10.7011 C   0  0  0  0  0  0
  -21.9603   26.2970   -9.6601 C   0  0  0  0  0  0
  -22.8506   25.2361   -9.5443 C   0  0  0  0  0  0
  1  2  1  0  0  0
  2  3  1  0  0  0
  3  4  2  0  0  0
  3  8  1  0  0  0
  4  5  1  0  0  0
  4  9  1  0  0  0
  5  6  2  0  0  0
  6  7  1  0  0  0
  7  8  2  0  0  0
  9 10  1  0  0  0
  9 14  1  0  0  0
 10 11  1  0  0  0
 11 12  1  0  0  0
 12 13  1  0  0  0
 12 15  1  0  0  0
 13 14  1  0  0  0
 15 16  2  0  0  0
 15 17  1  0  0  0
 17 18  2  0  0  0
 17 26  1  0  0  0
 18 19  1  0  0  0
 18 24  1  0  0  0
 19 20  1  0  0  0
 19 23  1  0  0  0
 20 21  2  0  0  0
 21 22  1  0  0  0
 22 23  2  0  0  0
 24 25  2  0  0  0
 24 30  1  0  0  0
 25 26  1  0  0  0
 25 27  1  0  0  0
 27 28  2  0  0  0
 28 29  1  0  0  0
 29 30  2  0  0  0
M  END
>  <CHROM.0>
-61.20084587,-72.32137826,-167.08859959,-59.81364992,36.85922068,-55.14483813
-36.99703121,-163.53247722

>  <CHROM.1>
-66.36357915,178.31181245,-124.94737585,-5.51703962,-21.61890093,21.14060657
-12.54032900,0.86514727,-0.71068340,-2.82106378

>  <Name>
F3406-3354

>  <RI>
3.24878e+07

>  <Rbt.Current_Directory>
/home/adria/Escritorio/rDock_CMTR_LC/2pxcA_model/inputs_sah

>  <Rbt.Executable>
rbdock ($Id: //depot/dev/client3/rdock/2013.1/src/exe/rbdock.cxx#4 $)

>  <Rbt.Library>
libRbt.so (2013.1, Build901 2013/11/27)

>  <Rbt.Parameter_File>
/home/adria/Escritorio/rDock_2013.1_src/data/scripts/dock.prm

>  <Rbt.Receptor>
sah_rdock.prm

>  <SCORE>
-39.8405

>  <SCORE.INTER>
-12.374

>  <SCORE.INTER.CONST>
1

>  <SCORE.INTER.POLAR>
0

>  <SCORE.INTER.REPUL>
0.0641177

>  <SCORE.INTER.ROT>
4

>  <SCORE.INTER.VDW>
-22.0945

>  <SCORE.INTER.norm>
-0.412465

>  <SCORE.INTRA>
-32.1206

>  <SCORE.INTRA.DIHEDRAL>
-63.059

>  <SCORE.INTRA.DIHEDRAL.0>
77.0836

>  <SCORE.INTRA.POLAR>
0

>  <SCORE.INTRA.POLAR.0>
0

>  <SCORE.INTRA.REPUL>
0

>  <SCORE.INTRA.REPUL.0>
0

>  <SCORE.INTRA.VDW>
-0.591106

>  <SCORE.INTRA.VDW.0>
0.58543

>  <SCORE.INTRA.norm>
-1.07069

>  <SCORE.RESTR>
0

>  <SCORE.RESTR.CAVITY>
0

>  <SCORE.RESTR.norm>
0

>  <SCORE.SYSTEM>
4.6541

>  <SCORE.SYSTEM.CONST>
0

>  <SCORE.SYSTEM.DIHEDRAL>
5.06048

>  <SCORE.SYSTEM.POLAR>
-3.65085

>  <SCORE.SYSTEM.REPUL>
0.0373012

>  <SCORE.SYSTEM.VDW>
14.3503

>  <SCORE.SYSTEM.norm>
0.155137

>  <SCORE.heavy>
30

>  <SCORE.norm>
-1.32802

$$$$
F3406-3354
  rDOCK(R)          3D
libRbt.so/2013.1/901 2013/11/27
 30 34  0  0  0  0  0  0  0  0999 V2000
  -23.1556   26.1530  -12.3988 C   0  0  0  0  0  0
  -21.9028   26.6130  -11.9699 O   0  0  0  0  0  0
  -21.0077   25.8506  -11.2714 C   0  0  0  0  0  0
  -20.8678   24.4508  -11.1200 C   0  0  0  0  0  0
  -19.6159   24.0336  -10.5722 C   0  0  0  0  0  0
  -18.6071   24.9127  -10.1476 C   0  0  0  0  0  0
  -18.8101   26.2722  -10.2379 C   0  0  0  0  0  0
  -19.9936   26.7251  -10.8024 C   0  0  0  0  0  0
  -21.7809   23.4639  -11.4907 N   0  0  0  0  0  0
  -21.5389   22.6763  -12.7163 C   0  0  0  0  0  0
  -22.7072   21.6948  -12.9576 C   0  0  0  0  0  0
  -22.6532   20.7339  -11.8862 N   0  0  0  0  0  0
  -22.9029   21.3714  -10.5750 C   0  0  0  0  0  0
  -22.8411   22.9285  -10.6088 C   0  0  0  0  0  0
  -22.1333   19.4421  -11.9425 C   0  0  0  0  0  0
  -22.1504   18.8457  -10.8267 O   0  0  0  0  0  0
  -21.5490   18.7389  -13.1340 C   0  0  0  0  0  0
  -21.8736   18.1720  -14.3940 C   0  0  0  0  0  0
  -23.1332   18.0355  -15.0613 N   0  0  0  0  0  0
  -24.3862   18.3354  -14.5495 C   0  0  0  0  0  0
  -25.2935   18.2999  -15.5898 C   0  0  0  0  0  0
  -24.6025   17.8138  -16.7179 C   0  0  0  0  0  0
  -23.3714   17.3924  -16.2557 C   0  0  0  0  0  0
  -20.7088   17.7527  -15.1597 C   0  0  0  0  0  0
  -19.5449   17.8721  -14.4285 C   0  0  0  0  0  0
  -19.8215   18.4189  -12.8668 S   0  0  0  0  0  0
  -18.2902   17.6137  -14.8520 N   0  0  0  0  0  0
  -18.2057   17.2428  -16.1429 C   0  0  0  0  0  0
  -19.2778   17.0865  -16.9977 C   0  0  0  0  0  0
  -20.5539   17.3309  -16.5043 C   0  0  0  0  0  0
  1  2  1  0  0  0
  2  3  1  0  0  0
  3  4  2  0  0  0
  3  8  1  0  0  0
  4  5  1  0  0  0
  4  9  1  0  0  0
  5  6  2  0  0  0
  6  7  1  0  0  0
  7  8  2  0  0  0
  9 10  1  0  0  0
  9 14  1  0  0  0
 10 11  1  0  0  0
 11 12  1  0  0  0
 12 13  1  0  0  0
 12 15  1  0  0  0
 13 14  1  0  0  0
 15 16  2  0  0  0
 15 17  1  0  0  0
 17 18  2  0  0  0
 17 26  1  0  0  0
 18 19  1  0  0  0
 18 24  1  0  0  0
 19 20  1  0  0  0
 19 23  1  0  0  0
 20 21  2  0  0  0
 21 22  1  0  0  0
 22 23  2  0  0  0
 24 25  2  0  0  0
 24 30  1  0  0  0
 25 26  1  0  0  0
 25 27  1  0  0  0
 27 28  2  0  0  0
 28 29  1  0  0  0
 29 30  2  0  0  0
M  END
>  <CHROM.0>
-59.69683476,-72.17080030,72.77321783,64.66127086,30.02522024,63.81486659
83.99852443,-166.51580429

>  <CHROM.1>
20.02182230,103.12345425,-68.95172764,-6.41332572,-21.40167623,20.82891581
-13.08777347,1.50795225,-0.10055813,0.50624766

>  <Name>
F3406-3354

>  <RI>
3.24878e+07

>  <Rbt.Current_Directory>
/home/adria/Escritorio/rDock_CMTR_LC/2pxcA_model/inputs_sah

>  <Rbt.Executable>
rbdock ($Id: //depot/dev/client3/rdock/2013.1/src/exe/rbdock.cxx#4 $)

>  <Rbt.Library>
libRbt.so (2013.1, Build901 2013/11/27)

>  <Rbt.Parameter_File>
/home/adria/Escritorio/rDock_2013.1_src/data/scripts/dock.prm

>  <Rbt.Receptor>
sah_rdock.prm

>  <SCORE>
-40.1997

>  <SCORE.INTER>
-14.8732

>  <SCORE.INTER.CONST>
1

>  <SCORE.INTER.POLAR>
-1.84999

>  <SCORE.INTER.REPUL>
0

>  <SCORE.INTER.ROT>
4

>  <SCORE.INTER.VDW>
-17.9833

>  <SCORE.INTER.norm>
-0.495775

>  <SCORE.INTRA>
-29.4871

>  <SCORE.INTRA.DIHEDRAL>
-53.71

>  <SCORE.INTRA.DIHEDRAL.0>
77.0836

>  <SCORE.INTRA.POLAR>
0

>  <SCORE.INTRA.POLAR.0>
0

>  <SCORE.INTRA.REPUL>
0

>  <SCORE.INTRA.REPUL.0>
0

>  <SCORE.INTRA.VDW>
-2.6321

>  <SCORE.INTRA.VDW.0>
0.58543

>  <SCORE.INTRA.norm>
-0.982904

>  <SCORE.RESTR>
0

>  <SCORE.RESTR.CAVITY>
0

>  <SCORE.RESTR.norm>
0

>  <SCORE.SYSTEM>
4.16066

>  <SCORE.SYSTEM.CONST>
0

>  <SCORE.SYSTEM.DIHEDRAL>
6.33722

>  <SCORE.SYSTEM.POLAR>
-3.78359

>  <SCORE.SYSTEM.REPUL>
0.0370212

>  <SCORE.SYSTEM.VDW>
13.6711

>  <SCORE.SYSTEM.norm>
0.138689

>  <SCORE.heavy>
30

>  <SCORE.norm>
-1.33999

$$$$
F3406-3354
  rDOCK(R)          3D
libRbt.so/2013.1/901 2013/11/27
 30 34  0  0  0  0  0  0  0  0999 V2000
  -19.2500   21.2387  -14.6120 C   0  0  0  0  0  0
  -18.2581   20.3040  -14.2841 O   0  0  0  0  0  0
  -18.3833   18.9566  -14.4821 C   0  0  0  0  0  0
  -19.3723   18.0265  -14.0837 C   0  0  0  0  0  0
  -19.3120   16.7682  -14.7580 C   0  0  0  0  0  0
  -18.3290   16.4223  -15.6986 C   0  0  0  0  0  0
  -17.3350   17.3257  -16.0041 C   0  0  0  0  0  0
  -17.3757   18.5768  -15.4060 C   0  0  0  0  0  0
  -20.4022   18.2274  -13.1651 N   0  0  0  0  0  0
  -20.3465   19.3907  -12.2569 C   0  0  0  0  0  0
  -21.5528   19.3711  -11.2921 C   0  0  0  0  0  0
  -22.7211   19.5942  -12.1043 N   0  0  0  0  0  0
  -22.9316   18.4885  -13.0641 C   0  0  0  0  0  0
  -21.7079   17.5332  -13.2039 C   0  0  0  0  0  0
  -23.4215   20.7893  -12.2573 C   0  0  0  0  0  0
  -24.3678   20.7122  -13.0937 O   0  0  0  0  0  0
  -23.1502   22.1047  -11.5853 C   0  0  0  0  0  0
  -23.4673   22.8878  -10.4449 C   0  0  0  0  0  0
  -24.3574   22.6314   -9.3528 N   0  0  0  0  0  0
  -24.5114   23.3927   -8.2046 C   0  0  0  0  0  0
  -25.6336   22.9412   -7.5385 C   0  0  0  0  0  0
  -26.0712   21.7842   -8.2139 C   0  0  0  0  0  0
  -25.0815   21.4815   -9.1279 C   0  0  0  0  0  0
  -22.6758   24.1046  -10.3374 C   0  0  0  0  0  0
  -21.8827   24.2998  -11.4493 C   0  0  0  0  0  0
  -22.0991   23.1072  -12.6092 S   0  0  0  0  0  0
  -20.9993   25.2995  -11.6508 N   0  0  0  0  0  0
  -20.8796   26.1512  -10.6157 C   0  0  0  0  0  0
  -21.5987   26.0805   -9.4400 C   0  0  0  0  0  0
  -22.5222   25.0522   -9.2941 C   0  0  0  0  0  0
  1  2  1  0  0  0
  2  3  1  0  0  0
  3  4  2  0  0  0
  3  8  1  0  0  0
  4  5  1  0  0  0
  4  9  1  0  0  0
  5  6  2  0  0  0
  6  7  1  0  0  0
  7  8  2  0  0  0
  9 10  1  0  0  0
  9 14  1  0  0  0
 10 11  1  0  0  0
 11 12  1  0  0  0
 12 13  1  0  0  0
 12 15  1  0  0  0
 13 14  1  0  0  0
 15 16  2  0  0  0
 15 17  1  0  0  0
 17 18  2  0  0  0
 17 26  1  0  0  0
 18 19  1  0  0  0
 18 24  1  0  0  0
 19 20  1  0  0  0
 19 23  1  0  0  0
 20 21  2  0  0  0
 21 22  1  0  0  0
 22 23  2  0  0  0
 24 25  2  0  0  0
 24 30  1  0  0  0
 25 26  1  0  0  0
 25 27  1  0  0  0
 27 28  2  0  0  0
 28 29  1  0  0  0
 29 30  2  0  0  0
M  END
>  <CHROM.0>
-59.99195250,66.96235829,-47.38814907,-59.35346399,-31.74667382,-56.87318452
-156.14016285,-161.58513360

>  <CHROM.1>
-53.61738088,-15.01909910,-90.83181865,172.98967613,-21.67187996,21.15660095
-12.05161662,-0.88530588,0.58997552,0.31231102

>  <Name>
F3406-3354

>  <RI>
3.24878e+07

>  <Rbt.Current_Directory>
/home/adria/Escritorio/rDock_CMTR_LC/2pxcA_model/inputs_sah

>  <Rbt.Executable>
rbdock ($Id: //depot/dev/client3/rdock/2013.1/src/exe/rbdock.cxx#4 $)

>  <Rbt.Library>
libRbt.so (2013.1, Build901 2013/11/27)

>  <Rbt.Parameter_File>
/home/adria/Escritorio/rDock_2013.1_src/data/scripts/dock.prm

>  <Rbt.Receptor>
sah_rdock.prm

>  <SCORE>
-53.9639

>  <SCORE.INTER>
-15.6904

>  <SCORE.INTER.CONST>
1

>  <SCORE.INTER.POLAR>
0

>  <SCORE.INTER.REPUL>
0.0200425

>  <SCORE.INTER.ROT>
4

>  <SCORE.INTER.VDW>
-25.1906

>  <SCORE.INTER.norm>
-0.523012

>  <SCORE.INTRA>
-31.092

>  <SCORE.INTRA.DIHEDRAL>
-59.4993

>  <SCORE.INTRA.DIHEDRAL.0>
77.0836

>  <SCORE.INTRA.POLAR>
0

>  <SCORE.INTRA.POLAR.0>
0

>  <SCORE.INTRA.REPUL>
0

>  <SCORE.INTRA.REPUL.0>
0

>  <SCORE.INTRA.VDW>
-1.34236

>  <SCORE.INTRA.VDW.0>
0.58543

>  <SCORE.INTRA.norm>
-1.0364

>  <SCORE.RESTR>
0

>  <SCORE.RESTR.CAVITY>
0

>  <SCORE.RESTR.norm>
0

>  <SCORE.SYSTEM>
-7.18152

>  <SCORE.SYSTEM.CONST>
0

>  <SCORE.SYSTEM.DIHEDRAL>
5.62279

>  <SCORE.SYSTEM.POLAR>
-3.75523

>  <SCORE.SYSTEM.VDW>
2.77488

>  <SCORE.SYSTEM.norm>
-0.239384

>  <SCORE.heavy>
30

>  <SCORE.norm>
-1.7988

$$$$
