F2636-0159
  rDOCK(R)          3D
libRbt.so/2013.1/901 2013/11/27
 31 34  0  0  0  0  0  0  0  0999 V2000
  -19.0384   25.3133  -10.4926 C   0  0  0  0  0  0
  -20.4583   25.0275  -10.6361 N   0  3  0  0  0  0
  -20.8532   23.8843  -11.2765 C   0  0  0  0  0  0
  -22.1569   23.5712  -11.5126 C   0  0  0  0  0  0
  -22.1340   22.3870  -12.2109 N   0  0  0  0  0  0
  -23.2934   21.8807  -12.9401 C   0  0  0  0  0  0
  -23.5611   20.4256  -12.7210 C   0  0  0  0  0  0
  -23.5408   19.4971  -13.6893 C   0  0  0  0  0  0
  -20.7823   22.0682  -12.3426 C   0  0  0  0  0  0
  -20.0152   22.9593  -11.7474 N   0  0  0  0  0  0
  -20.2591   21.2710  -13.2853 N   0  0  0  0  0  0
  -20.1482   19.4185  -12.7561 C   0  0  0  0  0  0
  -19.2809   18.1896  -14.0379 C   0  0  0  0  0  0
  -18.4310   18.7810  -15.5801 N   0  0  0  0  0  0
  -17.0473   18.7946  -15.1931 C   0  0  0  0  0  0
  -16.4264   18.1995  -16.3780 C   0  0  0  0  0  0
  -16.9827   17.0069  -16.8510 C   0  0  0  0  0  0
  -18.6309   15.6612  -15.6749 Cl  0  0  0  0  0  0
  -16.3117   16.7462  -18.1802 C   0  0  0  0  0  0
  -15.1161   17.2820  -18.7195 C   0  0  0  0  0  0
  -14.6089   18.3813  -18.1106 C   0  0  0  0  0  0
  -15.3106   18.8876  -17.0149 C   0  0  0  0  0  0
  -14.7913   20.4470  -16.4782 Cl  0  0  0  0  0  0
  -18.6603   20.5574  -16.0634 C   0  0  0  0  0  0
  -19.4056   21.8847  -14.8442 C   0  0  0  0  0  0
  -23.2137   24.4174  -11.1042 C   0  0  0  0  0  0
  -24.4030   24.2377  -11.3465 O   0  0  0  0  0  0
  -22.7612   25.4965  -10.3828 N   0  3  0  0  0  0
  -23.4706   26.0991  -10.0002 H   0  0  0  0  0  0
  -21.4448   25.8449  -10.1082 C   0  0  0  0  0  0
  -21.2171   26.8368   -9.4195 O   0  0  0  0  0  0
  1  2  1  0  0  0
  2  3  1  0  0  0
  2 30  1  0  0  0
  3  4  1  0  0  0
  3 10  1  0  0  0
  4  5  1  0  0  0
  4 26  1  0  0  0
  5  6  1  0  0  0
  5  9  1  0  0  0
  6  7  1  0  0  0
  7  8  2  0  0  0
  9 10  1  0  0  0
  9 11  1  0  0  0
 11 12  1  0  0  0
 11 25  1  0  0  0
 12 13  1  0  0  0
 13 14  1  0  0  0
 14 15  1  0  0  0
 14 24  1  0  0  0
 15 16  1  0  0  0
 16 17  2  0  0  0
 16 22  1  0  0  0
 17 18  1  0  0  0
 17 19  1  0  0  0
 19 20  2  0  0  0
 20 21  1  0  0  0
 21 22  2  0  0  0
 22 23  1  0  0  0
 24 25  1  0  0  0
 26 27  2  0  0  0
 26 28  1  0  0  0
 28 29  1  0  0  0
 28 30  1  0  0  0
 30 31  2  0  0  0
M  END
>  <CHROM.0>
-80.69463451,-73.61669397,-47.28130032,62.56686065,-31.02422963,179.14957753
-36.21875649,-162.88337863

>  <CHROM.1>
-134.72030721,-118.41879342,-91.29671453,136.52585871,-49.73322342,-19.46135029
20.96033698,-13.85551724,-2.18793660,-0.37345593,-2.66446571

>  <Name>
F2636-0159

>  <RI>
2.24485e+07

>  <Rbt.Current_Directory>
/home/adria/Escritorio/rDock_CMTR_LC/2pxcA_model/inputs_sah

>  <Rbt.Executable>
rbdock ($Id: //depot/dev/client3/rdock/2013.1/src/exe/rbdock.cxx#4 $)

>  <Rbt.Library>
libRbt.so (2013.1, Build901 2013/11/27)

>  <Rbt.Parameter_File>
/home/adria/Escritorio/rDock_2013.1_src/data/scripts/dock.prm

>  <Rbt.Receptor>
sah_rdock.prm

>  <SCORE>
-228.431

>  <SCORE.INTER>
-18.6077

>  <SCORE.INTER.CONST>
1

>  <SCORE.INTER.POLAR>
-1.87339

>  <SCORE.INTER.REPUL>
1.00554

>  <SCORE.INTER.ROT>
5

>  <SCORE.INTER.VDW>
-27.6659

>  <SCORE.INTER.norm>
-0.620257

>  <SCORE.INTRA>
-202.972

>  <SCORE.INTRA.DIHEDRAL>
-0.785636

>  <SCORE.INTRA.DIHEDRAL.0>
5.71238

>  <SCORE.INTRA.POLAR>
0

>  <SCORE.INTRA.POLAR.0>
0

>  <SCORE.INTRA.REPUL>
0

>  <SCORE.INTRA.REPUL.0>
0

>  <SCORE.INTRA.VDW>
-202.579

>  <SCORE.INTRA.VDW.0>
200.33

>  <SCORE.INTRA.norm>
-6.76574

>  <SCORE.RESTR>
0

>  <SCORE.RESTR.CAVITY>
0

>  <SCORE.RESTR.norm>
0

>  <SCORE.SYSTEM>
-6.85079

>  <SCORE.SYSTEM.CONST>
0

>  <SCORE.SYSTEM.DIHEDRAL>
8.25732

>  <SCORE.SYSTEM.POLAR>
-4.04542

>  <SCORE.SYSTEM.REPUL>
0.0396182

>  <SCORE.SYSTEM.VDW>
2.5769

>  <SCORE.SYSTEM.norm>
-0.22836

>  <SCORE.heavy>
30

>  <SCORE.norm>
-7.61436

$$$$
F2636-0159
  rDOCK(R)          3D
libRbt.so/2013.1/901 2013/11/27
 31 34  0  0  0  0  0  0  0  0999 V2000
  -14.3145   20.6147  -16.4140 C   0  0  0  0  0  0
  -15.1853   19.5483  -16.8857 N   0  3  0  0  0  0
  -16.5048   19.5466  -16.5224 C   0  0  0  0  0  0
  -17.3735   18.5553  -16.8633 C   0  0  0  0  0  0
  -18.5703   18.8921  -16.2763 N   0  0  0  0  0  0
  -19.6652   17.9389  -16.1184 C   0  0  0  0  0  0
  -21.0247   18.5592  -16.1820 C   0  0  0  0  0  0
  -21.9640   18.2354  -17.0836 C   0  0  0  0  0  0
  -18.3244   20.0937  -15.6118 C   0  0  0  0  0  0
  -17.0839   20.5007  -15.7917 N   0  0  0  0  0  0
  -19.0317   20.5693  -14.5766 N   0  0  0  0  0  0
  -19.5809   19.2068  -13.3251 C   0  0  0  0  0  0
  -20.7287   19.7995  -11.8296 C   0  0  0  0  0  0
  -21.4237   21.5184  -11.7155 N   0  0  0  0  0  0
  -22.7602   21.3528  -12.2162 C   0  0  0  0  0  0
  -23.5206   22.1117  -11.2213 C   0  0  0  0  0  0
  -24.1557   23.2758  -11.6651 C   0  0  0  0  0  0
  -23.8045   24.3318  -13.8266 Cl  0  0  0  0  0  0
  -25.0328   23.7212  -10.5173 C   0  0  0  0  0  0
  -24.9935   23.3640   -9.1469 C   0  0  0  0  0  0
  -24.2562   22.2752   -8.8192 C   0  0  0  0  0  0
  -23.6091   21.6036   -9.8582 C   0  0  0  0  0  0
  -22.9451   20.0667   -9.4263 Cl  0  0  0  0  0  0
  -20.7775   22.7899  -12.9019 C   0  0  0  0  0  0
  -19.7249   22.3141  -14.4733 C   0  0  0  0  0  0
  -16.9685   17.4394  -17.6317 C   0  0  0  0  0  0
  -17.6740   16.4758  -17.9130 O   0  0  0  0  0  0
  -15.6626   17.5459  -18.0478 N   0  3  0  0  0  0
  -15.3350   16.8180  -18.6604 H   0  0  0  0  0  0
  -14.7487   18.5441  -17.7350 C   0  0  0  0  0  0
  -13.6200   18.4982  -18.2187 O   0  0  0  0  0  0
  1  2  1  0  0  0
  2  3  1  0  0  0
  2 30  1  0  0  0
  3  4  1  0  0  0
  3 10  1  0  0  0
  4  5  1  0  0  0
  4 26  1  0  0  0
  5  6  1  0  0  0
  5  9  1  0  0  0
  6  7  1  0  0  0
  7  8  2  0  0  0
  9 10  1  0  0  0
  9 11  1  0  0  0
 11 12  1  0  0  0
 11 25  1  0  0  0
 12 13  1  0  0  0
 13 14  1  0  0  0
 14 15  1  0  0  0
 14 24  1  0  0  0
 15 16  1  0  0  0
 16 17  2  0  0  0
 16 22  1  0  0  0
 17 18  1  0  0  0
 17 19  1  0  0  0
 19 20  2  0  0  0
 20 21  1  0  0  0
 21 22  2  0  0  0
 22 23  1  0  0  0
 24 25  1  0  0  0
 26 27  2  0  0  0
 26 28  1  0  0  0
 28 29  1  0  0  0
 28 30  1  0  0  0
 30 31  2  0  0  0
M  END
>  <CHROM.0>
-60.35164168,-75.11576419,112.10610776,67.94845190,-31.11881981,-175.50269954
83.25200987,-164.56785339

>  <CHROM.1>
-148.41928987,120.29574766,38.78209992,134.73723269,113.74255963,-20.07498520
20.44190286,-14.11737182,-0.17205591,0.76909211,-0.28944166

>  <Name>
F2636-0159

>  <RI>
2.24485e+07

>  <Rbt.Current_Directory>
/home/adria/Escritorio/rDock_CMTR_LC/2pxcA_model/inputs_sah

>  <Rbt.Executable>
rbdock ($Id: //depot/dev/client3/rdock/2013.1/src/exe/rbdock.cxx#4 $)

>  <Rbt.Library>
libRbt.so (2013.1, Build901 2013/11/27)

>  <Rbt.Parameter_File>
/home/adria/Escritorio/rDock_2013.1_src/data/scripts/dock.prm

>  <Rbt.Receptor>
sah_rdock.prm

>  <SCORE>
-226.667

>  <SCORE.INTER>
-16.2806

>  <SCORE.INTER.CONST>
1

>  <SCORE.INTER.POLAR>
-0.833246

>  <SCORE.INTER.REPUL>
0.424067

>  <SCORE.INTER.ROT>
5

>  <SCORE.INTER.VDW>
-25.9679

>  <SCORE.INTER.norm>
-0.542687

>  <SCORE.INTRA>
-203.114

>  <SCORE.INTRA.DIHEDRAL>
-1.04877

>  <SCORE.INTRA.DIHEDRAL.0>
5.71238

>  <SCORE.INTRA.POLAR>
0

>  <SCORE.INTRA.POLAR.0>
0

>  <SCORE.INTRA.REPUL>
0

>  <SCORE.INTRA.REPUL.0>
0

>  <SCORE.INTRA.VDW>
-202.59

>  <SCORE.INTRA.VDW.0>
200.33

>  <SCORE.INTRA.norm>
-6.77048

>  <SCORE.RESTR>
0

>  <SCORE.RESTR.CAVITY>
0

>  <SCORE.RESTR.norm>
0

>  <SCORE.SYSTEM>
-7.27211

>  <SCORE.SYSTEM.CONST>
0

>  <SCORE.SYSTEM.DIHEDRAL>
9.78235

>  <SCORE.SYSTEM.POLAR>
-4.6306

>  <SCORE.SYSTEM.REPUL>
0.0420929

>  <SCORE.SYSTEM.VDW>
3.37027

>  <SCORE.SYSTEM.norm>
-0.242404

>  <SCORE.heavy>
30

>  <SCORE.norm>
-7.55557

$$$$
F2636-0159
  rDOCK(R)          3D
libRbt.so/2013.1/901 2013/11/27
 31 34  0  0  0  0  0  0  0  0999 V2000
  -23.9691   24.3831  -12.0439 C   0  0  0  0  0  0
  -24.6141   23.3608  -11.2333 N   0  3  0  0  0  0
  -23.9969   22.1519  -11.0585 C   0  0  0  0  0  0
  -24.5571   21.1181  -10.3721 C   0  0  0  0  0  0
  -23.6586   20.0814  -10.4634 N   0  0  0  0  0  0
  -24.0157   18.7005  -10.1507 C   0  0  0  0  0  0
  -24.8428   18.0335  -11.2035 C   0  0  0  0  0  0
  -26.0416   17.4727  -10.9831 C   0  0  0  0  0  0
  -22.5969   20.5850  -11.2154 C   0  0  0  0  0  0
  -22.7924   21.8463  -11.5436 N   0  0  0  0  0  0
  -21.7203   19.8492  -11.9140 N   0  0  0  0  0  0
  -20.0270   20.7298  -12.1995 C   0  0  0  0  0  0
  -18.7150   19.7675  -13.3210 C   0  0  0  0  0  0
  -19.1262   18.2001  -14.2291 N   0  0  0  0  0  0
  -19.3973   18.6678  -15.5603 C   0  0  0  0  0  0
  -18.0395   18.9385  -16.0366 C   0  0  0  0  0  0
  -17.5877   20.2583  -15.9401 C   0  0  0  0  0  0
  -18.9733   22.1826  -15.4035 Cl  0  0  0  0  0  0
  -16.1152   20.2081  -16.2782 C   0  0  0  0  0  0
  -15.3645   19.2046  -16.9391 C   0  0  0  0  0  0
  -15.9490   17.9889  -17.0692 C   0  0  0  0  0  0
  -17.2307   17.8344  -16.5374 C   0  0  0  0  0  0
  -17.7929   16.2011  -16.4620 Cl  0  0  0  0  0  0
  -20.7377   17.3712  -13.8315 C   0  0  0  0  0  0
  -22.1508   18.2613  -12.8244 C   0  0  0  0  0  0
  -25.8365   21.2221   -9.7789 C   0  0  0  0  0  0
  -26.4334   20.3126   -9.2114 O   0  0  0  0  0  0
  -26.3619   22.4862   -9.9037 N   0  3  0  0  0  0
  -27.2398   22.6460   -9.4385 H   0  0  0  0  0  0
  -25.8191   23.5701  -10.5819 C   0  0  0  0  0  0
  -26.4142   24.6452  -10.5703 O   0  0  0  0  0  0
  1  2  1  0  0  0
  2  3  1  0  0  0
  2 30  1  0  0  0
  3  4  1  0  0  0
  3 10  1  0  0  0
  4  5  1  0  0  0
  4 26  1  0  0  0
  5  6  1  0  0  0
  5  9  1  0  0  0
  6  7  1  0  0  0
  7  8  2  0  0  0
  9 10  1  0  0  0
  9 11  1  0  0  0
 11 12  1  0  0  0
 11 25  1  0  0  0
 12 13  1  0  0  0
 13 14  1  0  0  0
 14 15  1  0  0  0
 14 24  1  0  0  0
 15 16  1  0  0  0
 16 17  2  0  0  0
 16 22  1  0  0  0
 17 18  1  0  0  0
 17 19  1  0  0  0
 19 20  2  0  0  0
 20 21  1  0  0  0
 21 22  2  0  0  0
 22 23  1  0  0  0
 24 25  1  0  0  0
 26 27  2  0  0  0
 26 28  1  0  0  0
 28 29  1  0  0  0
 28 30  1  0  0  0
 30 31  2  0  0  0
M  END
>  <CHROM.0>
-178.09499799,-169.36872337,-7.44831748,65.04683072,-30.09265179,-176.24445964
83.70951587,-162.40229875

>  <CHROM.1>
75.14552283,-123.80621509,-155.64837754,75.28819750,-96.42527765,-21.47689584
20.12860184,-13.05736617,-2.82949974,-0.62655605,3.13386345

>  <Name>
F2636-0159

>  <RI>
2.24485e+07

>  <Rbt.Current_Directory>
/home/adria/Escritorio/rDock_CMTR_LC/2pxcA_model/inputs_sah

>  <Rbt.Executable>
rbdock ($Id: //depot/dev/client3/rdock/2013.1/src/exe/rbdock.cxx#4 $)

>  <Rbt.Library>
libRbt.so (2013.1, Build901 2013/11/27)

>  <Rbt.Parameter_File>
/home/adria/Escritorio/rDock_2013.1_src/data/scripts/dock.prm

>  <Rbt.Receptor>
sah_rdock.prm

>  <SCORE>
-217.473

>  <SCORE.INTER>
-8.57456

>  <SCORE.INTER.CONST>
1

>  <SCORE.INTER.POLAR>
0

>  <SCORE.INTER.REPUL>
0

>  <SCORE.INTER.ROT>
5

>  <SCORE.INTER.VDW>
-18.9746

>  <SCORE.INTER.norm>
-0.285819

>  <SCORE.INTRA>
-203.219

>  <SCORE.INTRA.DIHEDRAL>
-2.72935

>  <SCORE.INTRA.DIHEDRAL.0>
5.71238

>  <SCORE.INTRA.POLAR>
0

>  <SCORE.INTRA.POLAR.0>
0

>  <SCORE.INTRA.REPUL>
0

>  <SCORE.INTRA.REPUL.0>
0

>  <SCORE.INTRA.VDW>
-201.854

>  <SCORE.INTRA.VDW.0>
200.33

>  <SCORE.INTRA.norm>
-6.77396

>  <SCORE.RESTR>
0

>  <SCORE.RESTR.CAVITY>
0

>  <SCORE.RESTR.norm>
0

>  <SCORE.SYSTEM>
-5.67994

>  <SCORE.SYSTEM.CONST>
0

>  <SCORE.SYSTEM.DIHEDRAL>
9.42518

>  <SCORE.SYSTEM.POLAR>
-4.2674

>  <SCORE.SYSTEM.VDW>
4.11661

>  <SCORE.SYSTEM.norm>
-0.189331

>  <SCORE.heavy>
30

>  <SCORE.norm>
-7.24911

$$$$
F2636-0159
  rDOCK(R)          3D
libRbt.so/2013.1/901 2013/11/27
 31 34  0  0  0  0  0  0  0  0999 V2000
  -18.9602   25.3415  -10.5198 C   0  0  0  0  0  0
  -20.3846   25.0737  -10.6536 N   0  3  0  0  0  0
  -20.7982   23.9354  -11.2909 C   0  0  0  0  0  0
  -22.1074   23.6388  -11.5181 C   0  0  0  0  0  0
  -22.1042   22.4542  -12.2161 N   0  0  0  0  0  0
  -23.2749   21.9625  -12.9373 C   0  0  0  0  0  0
  -24.0814   20.9599  -12.1748 C   0  0  0  0  0  0
  -23.8766   20.6439  -10.8871 C   0  0  0  0  0  0
  -20.7576   22.1182  -12.3568 C   0  0  0  0  0  0
  -19.9752   22.9998  -11.7672 N   0  0  0  0  0  0
  -20.2510   21.3142  -13.3027 N   0  0  0  0  0  0
  -20.2283   19.4507  -12.8018 C   0  0  0  0  0  0
  -19.3898   18.2060  -14.0875 C   0  0  0  0  0  0
  -18.4869   18.7846  -15.6043 N   0  0  0  0  0  0
  -17.1114   18.7334  -15.1922 C   0  0  0  0  0  0
  -16.4904   18.1537  -16.3847 C   0  0  0  0  0  0
  -17.0250   16.9495  -16.8532 C   0  0  0  0  0  0
  -18.6296   15.5658  -15.6611 Cl  0  0  0  0  0  0
  -16.3630   16.7055  -18.1901 C   0  0  0  0  0  0
  -15.1857   17.2685  -18.7417 C   0  0  0  0  0  0
  -14.6965   18.3782  -18.1368 C   0  0  0  0  0  0
  -15.3974   18.8674  -17.0327 C   0  0  0  0  0  0
  -14.9072   20.4375  -16.4996 Cl  0  0  0  0  0  0
  -18.6320   20.5764  -16.0627 C   0  0  0  0  0  0
  -19.3432   21.9152  -14.8358 C   0  0  0  0  0  0
  -23.1506   24.4985  -11.1028 C   0  0  0  0  0  0
  -24.3437   24.3339  -11.3371 O   0  0  0  0  0  0
  -22.6795   25.5720  -10.3849 N   0  3  0  0  0  0
  -23.3786   26.1836   -9.9977 H   0  0  0  0  0  0
  -21.3571   25.9037  -10.1193 C   0  0  0  0  0  0
  -21.1121   26.8928   -9.4326 O   0  0  0  0  0  0
  1  2  1  0  0  0
  2  3  1  0  0  0
  2 30  1  0  0  0
  3  4  1  0  0  0
  3 10  1  0  0  0
  4  5  1  0  0  0
  4 26  1  0  0  0
  5  6  1  0  0  0
  5  9  1  0  0  0
  6  7  1  0  0  0
  7  8  2  0  0  0
  9 10  1  0  0  0
  9 11  1  0  0  0
 11 12  1  0  0  0
 11 25  1  0  0  0
 12 13  1  0  0  0
 13 14  1  0  0  0
 14 15  1  0  0  0
 14 24  1  0  0  0
 15 16  1  0  0  0
 16 17  2  0  0  0
 16 22  1  0  0  0
 17 18  1  0  0  0
 17 19  1  0  0  0
 19 20  2  0  0  0
 20 21  1  0  0  0
 21 22  2  0  0  0
 22 23  1  0  0  0
 24 25  1  0  0  0
 26 27  2  0  0  0
 26 28  1  0  0  0
 28 29  1  0  0  0
 28 30  1  0  0  0
 30 31  2  0  0  0
M  END
>  <CHROM.0>
-77.13068307,-163.70836335,3.79270512,64.86704819,-29.57927703,-53.27828702
-156.38219663,-159.41454930

>  <CHROM.1>
-97.35491013,8.05841742,-88.88212495,137.52373858,-53.96155319,-19.48947833
21.02544845,-13.76337795,-2.20564955,-0.43603938,-2.70443728

>  <Name>
F2636-0159

>  <RI>
2.24485e+07

>  <Rbt.Current_Directory>
/home/adria/Escritorio/rDock_CMTR_LC/2pxcA_model/inputs_sah

>  <Rbt.Executable>
rbdock ($Id: //depot/dev/client3/rdock/2013.1/src/exe/rbdock.cxx#4 $)

>  <Rbt.Library>
libRbt.so (2013.1, Build901 2013/11/27)

>  <Rbt.Parameter_File>
/home/adria/Escritorio/rDock_2013.1_src/data/scripts/dock.prm

>  <Rbt.Receptor>
sah_rdock.prm

>  <SCORE>
-225.542

>  <SCORE.INTER>
-17.6623

>  <SCORE.INTER.CONST>
1

>  <SCORE.INTER.POLAR>
-1.89504

>  <SCORE.INTER.REPUL>
1.07167

>  <SCORE.INTER.ROT>
5

>  <SCORE.INTER.VDW>
-26.9775

>  <SCORE.INTER.norm>
-0.588743

>  <SCORE.INTRA>
-202.781

>  <SCORE.INTRA.DIHEDRAL>
0.0315058

>  <SCORE.INTRA.DIHEDRAL.0>
5.71238

>  <SCORE.INTRA.POLAR>
0

>  <SCORE.INTRA.POLAR.0>
0

>  <SCORE.INTRA.REPUL>
0

>  <SCORE.INTRA.REPUL.0>
0

>  <SCORE.INTRA.VDW>
-202.797

>  <SCORE.INTRA.VDW.0>
200.33

>  <SCORE.INTRA.norm>
-6.75937

>  <SCORE.RESTR>
0

>  <SCORE.RESTR.CAVITY>
0

>  <SCORE.RESTR.norm>
0

>  <SCORE.SYSTEM>
-5.09837

>  <SCORE.SYSTEM.CONST>
0

>  <SCORE.SYSTEM.DIHEDRAL>
11.8599

>  <SCORE.SYSTEM.POLAR>
-4.27592

>  <SCORE.SYSTEM.VDW>
3.50981

>  <SCORE.SYSTEM.norm>
-0.169946

>  <SCORE.heavy>
30

>  <SCORE.norm>
-7.51806

$$$$
F2636-0159
  rDOCK(R)          3D
libRbt.so/2013.1/901 2013/11/27
 31 34  0  0  0  0  0  0  0  0999 V2000
  -19.2063   24.8299  -10.2158 C   0  0  0  0  0  0
  -20.5770   24.8157  -10.7049 N   0  3  0  0  0  0
  -21.1426   23.6298  -11.0880 C   0  0  0  0  0  0
  -22.3931   23.5339  -11.6177 C   0  0  0  0  0  0
  -22.5704   22.2027  -11.9127 N   0  0  0  0  0  0
  -23.6348   21.7263  -12.7916 C   0  0  0  0  0  0
  -24.7995   21.1298  -12.0674 C   0  0  0  0  0  0
  -26.0700   21.5364  -12.2106 C   0  0  0  0  0  0
  -21.3825   21.5826  -11.5250 C   0  0  0  0  0  0
  -20.5369   22.4447  -10.9972 N   0  0  0  0  0  0
  -20.9254   20.4134  -11.9960 N   0  0  0  0  0  0
  -19.1801   20.5378  -12.8102 C   0  0  0  0  0  0
  -18.4776   18.8864  -13.6377 C   0  0  0  0  0  0
  -19.4931   17.3416  -13.8184 N   0  0  0  0  0  0
  -19.9432   17.4167  -15.1808 C   0  0  0  0  0  0
  -18.7124   17.0711  -15.8946 C   0  0  0  0  0  0
  -18.1678   18.0540  -16.7269 C   0  0  0  0  0  0
  -19.2732   20.1218  -17.3698 Cl  0  0  0  0  0  0
  -16.8149   17.5258  -17.1459 C   0  0  0  0  0  0
  -16.2965   16.2079  -17.1027 C   0  0  0  0  0  0
  -16.9711   15.3095  -16.3448 C   0  0  0  0  0  0
  -18.1080   15.7635  -15.6735 C   0  0  0  0  0  0
  -18.7413   14.6675  -14.4957 Cl  0  0  0  0  0  0
  -21.1213   17.2719  -12.9319 C   0  0  0  0  0  0
  -21.9648   18.8560  -12.1686 C   0  0  0  0  0  0
  -23.2114   24.6709  -11.8108 C   0  0  0  0  0  0
  -24.3143   24.6705  -12.3483 O   0  0  0  0  0  0
  -22.6295   25.8149  -11.3184 N   0  3  0  0  0  0
  -23.1927   26.6479  -11.3592 H   0  0  0  0  0  0
  -21.3654   25.9540  -10.7597 C   0  0  0  0  0  0
  -21.0110   27.0539  -10.3420 O   0  0  0  0  0  0
  1  2  1  0  0  0
  2  3  1  0  0  0
  2 30  1  0  0  0
  3  4  1  0  0  0
  3 10  1  0  0  0
  4  5  1  0  0  0
  4 26  1  0  0  0
  5  6  1  0  0  0
  5  9  1  0  0  0
  6  7  1  0  0  0
  7  8  2  0  0  0
  9 10  1  0  0  0
  9 11  1  0  0  0
 11 12  1  0  0  0
 11 25  1  0  0  0
 12 13  1  0  0  0
 13 14  1  0  0  0
 14 15  1  0  0  0
 14 24  1  0  0  0
 15 16  1  0  0  0
 16 17  2  0  0  0
 16 22  1  0  0  0
 17 18  1  0  0  0
 17 19  1  0  0  0
 19 20  2  0  0  0
 20 21  1  0  0  0
 21 22  2  0  0  0
 22 23  1  0  0  0
 24 25  1  0  0  0
 26 27  2  0  0  0
 26 28  1  0  0  0
 28 29  1  0  0  0
 28 30  1  0  0  0
 30 31  2  0  0  0
M  END
>  <CHROM.0>
-55.83639049,67.36341600,-11.47106396,67.85150527,-31.19410224,62.98291254
-156.12965643,-156.49555141

>  <CHROM.1>
-102.28512398,124.41326430,121.67408093,74.44620859,-116.77677770,-20.52687000
20.47744113,-13.36984373,-2.03303156,-0.42298853,-2.82490297

>  <Name>
F2636-0159

>  <RI>
2.24485e+07

>  <Rbt.Current_Directory>
/home/adria/Escritorio/rDock_CMTR_LC/2pxcA_model/inputs_sah

>  <Rbt.Executable>
rbdock ($Id: //depot/dev/client3/rdock/2013.1/src/exe/rbdock.cxx#4 $)

>  <Rbt.Library>
libRbt.so (2013.1, Build901 2013/11/27)

>  <Rbt.Parameter_File>
/home/adria/Escritorio/rDock_2013.1_src/data/scripts/dock.prm

>  <Rbt.Receptor>
sah_rdock.prm

>  <SCORE>
-229.753

>  <SCORE.INTER>
-19.6741

>  <SCORE.INTER.CONST>
1

>  <SCORE.INTER.POLAR>
-2.51191

>  <SCORE.INTER.REPUL>
0.111464

>  <SCORE.INTER.ROT>
5

>  <SCORE.INTER.VDW>
-22.0909

>  <SCORE.INTER.norm>
-0.655802

>  <SCORE.INTRA>
-203.157

>  <SCORE.INTRA.DIHEDRAL>
-1.58457

>  <SCORE.INTRA.DIHEDRAL.0>
5.71238

>  <SCORE.INTRA.POLAR>
0

>  <SCORE.INTRA.POLAR.0>
0

>  <SCORE.INTRA.REPUL>
0

>  <SCORE.INTRA.REPUL.0>
0

>  <SCORE.INTRA.VDW>
-202.364

>  <SCORE.INTRA.VDW.0>
200.33

>  <SCORE.INTRA.norm>
-6.77189

>  <SCORE.RESTR>
0

>  <SCORE.RESTR.CAVITY>
0

>  <SCORE.RESTR.norm>
0

>  <SCORE.SYSTEM>
-6.9224

>  <SCORE.SYSTEM.CONST>
0

>  <SCORE.SYSTEM.DIHEDRAL>
9.32743

>  <SCORE.SYSTEM.POLAR>
-4.32695

>  <SCORE.SYSTEM.VDW>
3.12552

>  <SCORE.SYSTEM.norm>
-0.230747

>  <SCORE.heavy>
30

>  <SCORE.norm>
-7.65843

$$$$
F2636-0159
  rDOCK(R)          3D
libRbt.so/2013.1/901 2013/11/27
 31 34  0  0  0  0  0  0  0  0999 V2000
  -19.1441   24.7819  -10.2270 C   0  0  0  0  0  0
  -20.5218   24.7837  -10.6963 N   0  3  0  0  0  0
  -21.1033   23.6059  -11.0806 C   0  0  0  0  0  0
  -22.3621   23.5250  -11.5928 C   0  0  0  0  0  0
  -22.5554   22.1979  -11.8957 N   0  0  0  0  0  0
  -23.6365   21.7379  -12.7629 C   0  0  0  0  0  0
  -24.9709   21.6764  -12.0900 C   0  0  0  0  0  0
  -25.6259   20.5399  -11.8083 C   0  0  0  0  0  0
  -21.3676   21.5643  -11.5302 C   0  0  0  0  0  0
  -20.5069   22.4148  -11.0079 N   0  0  0  0  0  0
  -20.9276   20.3950  -12.0171 N   0  0  0  0  0  0
  -19.1962   20.5121  -12.8613 C   0  0  0  0  0  0
  -18.5207   18.8613  -13.7122 C   0  0  0  0  0  0
  -19.5509   17.3253  -13.8851 N   0  0  0  0  0  0
  -20.0244   17.4129  -15.2388 C   0  0  0  0  0  0
  -18.7747   17.2249  -15.9781 C   0  0  0  0  0  0
  -18.1313   15.9925  -15.8280 C   0  0  0  0  0  0
  -18.7043   14.2993  -14.1802 Cl  0  0  0  0  0  0
  -17.0213   15.9875  -16.8541 C   0  0  0  0  0  0
  -16.4284   17.0620  -17.5621 C   0  0  0  0  0  0
  -17.0918   18.2436  -17.5491 C   0  0  0  0  0  0
  -18.2973   18.2935  -16.8466 C   0  0  0  0  0  0
  -19.2371   19.7191  -17.1186 Cl  0  0  0  0  0  0
  -21.1636   17.2615  -12.9703 C   0  0  0  0  0  0
  -21.9815   18.8466  -12.1816 C   0  0  0  0  0  0
  -23.1730   24.6707  -11.7650 C   0  0  0  0  0  0
  -24.2836   24.6842  -12.2864 O   0  0  0  0  0  0
  -22.5741   25.8056  -11.2720 N   0  3  0  0  0  0
  -23.1304   26.6437  -11.2980 H   0  0  0  0  0  0
  -21.3009   25.9291  -10.7306 C   0  0  0  0  0  0
  -20.9307   27.0225  -10.3094 O   0  0  0  0  0  0
  1  2  1  0  0  0
  2  3  1  0  0  0
  2 30  1  0  0  0
  3  4  1  0  0  0
  3 10  1  0  0  0
  4  5  1  0  0  0
  4 26  1  0  0  0
  5  6  1  0  0  0
  5  9  1  0  0  0
  6  7  1  0  0  0
  7  8  2  0  0  0
  9 10  1  0  0  0
  9 11  1  0  0  0
 11 12  1  0  0  0
 11 25  1  0  0  0
 12 13  1  0  0  0
 13 14  1  0  0  0
 14 15  1  0  0  0
 14 24  1  0  0  0
 15 16  1  0  0  0
 16 17  2  0  0  0
 16 22  1  0  0  0
 17 18  1  0  0  0
 17 19  1  0  0  0
 19 20  2  0  0  0
 20 21  1  0  0  0
 21 22  2  0  0  0
 22 23  1  0  0  0
 24 25  1  0  0  0
 26 27  2  0  0  0
 26 28  1  0  0  0
 28 29  1  0  0  0
 28 30  1  0  0  0
 30 31  2  0  0  0
M  END
>  <CHROM.0>
-59.08577731,64.30756414,107.85094260,63.26213759,-30.04309754,61.21031120
-159.36054123,-159.11680418

>  <CHROM.1>
-78.53488589,-111.32383138,121.45899139,67.85770288,63.51857941,-20.52318743
20.47338200,-13.36393307,-2.04947671,-0.54365316,-2.86872531

>  <Name>
F2636-0159

>  <RI>
2.24485e+07

>  <Rbt.Current_Directory>
/home/adria/Escritorio/rDock_CMTR_LC/2pxcA_model/inputs_sah

>  <Rbt.Executable>
rbdock ($Id: //depot/dev/client3/rdock/2013.1/src/exe/rbdock.cxx#4 $)

>  <Rbt.Library>
libRbt.so (2013.1, Build901 2013/11/27)

>  <Rbt.Parameter_File>
/home/adria/Escritorio/rDock_2013.1_src/data/scripts/dock.prm

>  <Rbt.Receptor>
sah_rdock.prm

>  <SCORE>
-230.453

>  <SCORE.INTER>
-20.3166

>  <SCORE.INTER.CONST>
1

>  <SCORE.INTER.POLAR>
-2.36861

>  <SCORE.INTER.REPUL>
0.118727

>  <SCORE.INTER.ROT>
5

>  <SCORE.INTER.VDW>
-23.257

>  <SCORE.INTER.norm>
-0.677221

>  <SCORE.INTRA>
-203.067

>  <SCORE.INTRA.DIHEDRAL>
-2.05023

>  <SCORE.INTRA.DIHEDRAL.0>
5.71238

>  <SCORE.INTRA.POLAR>
0

>  <SCORE.INTRA.POLAR.0>
0

>  <SCORE.INTRA.REPUL>
0

>  <SCORE.INTRA.REPUL.0>
0

>  <SCORE.INTRA.VDW>
-202.041

>  <SCORE.INTRA.VDW.0>
200.33

>  <SCORE.INTRA.norm>
-6.76888

>  <SCORE.RESTR>
0

>  <SCORE.RESTR.CAVITY>
0

>  <SCORE.RESTR.norm>
0

>  <SCORE.SYSTEM>
-7.07008

>  <SCORE.SYSTEM.CONST>
0

>  <SCORE.SYSTEM.DIHEDRAL>
8.55401

>  <SCORE.SYSTEM.POLAR>
-4.24487

>  <SCORE.SYSTEM.VDW>
3.08548

>  <SCORE.SYSTEM.norm>
-0.235669

>  <SCORE.heavy>
30

>  <SCORE.norm>
-7.68177

$$$$
F2636-0159
  rDOCK(R)          3D
libRbt.so/2013.1/901 2013/11/27
 31 34  0  0  0  0  0  0  0  0999 V2000
  -18.4728   13.6501  -14.4436 C   0  0  0  0  0  0
  -18.2354   14.7190  -15.4026 N   0  3  0  0  0  0
  -18.6706   15.9854  -15.1201 C   0  0  0  0  0  0
  -18.5496   17.0287  -15.9863 C   0  0  0  0  0  0
  -19.1419   18.1008  -15.3616 N   0  0  0  0  0  0
  -19.5189   19.3177  -16.0752 C   0  0  0  0  0  0
  -19.6581   20.5194  -15.1957 C   0  0  0  0  0  0
  -18.9433   21.6465  -15.3337 C   0  0  0  0  0  0
  -19.5832   17.6081  -14.1334 C   0  0  0  0  0  0
  -19.2662   16.3382  -13.9798 N   0  0  0  0  0  0
  -20.5652   18.1381  -13.3898 N   0  0  0  0  0  0
  -22.3187   17.4649  -13.8327 C   0  0  0  0  0  0
  -23.8403   18.2771  -12.8681 C   0  0  0  0  0  0
  -23.6507   19.7433  -11.7434 N   0  0  0  0  0  0
  -24.0494   20.8392  -12.5826 C   0  0  0  0  0  0
  -24.3619   21.8549  -11.5754 C   0  0  0  0  0  0
  -25.3224   21.5188  -10.6163 C   0  0  0  0  0  0
  -26.7658   19.5641  -10.6975 Cl  0  0  0  0  0  0
  -25.2806   22.6316   -9.5940 C   0  0  0  0  0  0
  -24.7400   23.9378   -9.6887 C   0  0  0  0  0  0
  -23.9006   24.1791  -10.7248 C   0  0  0  0  0  0
  -23.6412   23.1214  -11.5986 C   0  0  0  0  0  0
  -22.3427   23.3973  -12.7065 Cl  0  0  0  0  0  0
  -21.9287   20.2717  -11.2991 C   0  0  0  0  0  0
  -20.3566   19.6202  -12.2517 C   0  0  0  0  0  0
  -17.9538   16.8766  -17.2597 C   0  0  0  0  0  0
  -17.8773   17.7499  -18.1181 O   0  0  0  0  0  0
  -17.4501   15.6111  -17.4458 N   0  3  0  0  0  0
  -16.9481   15.4590  -18.3046 H   0  0  0  0  0  0
  -17.5397   14.5246  -16.5851 C   0  0  0  0  0  0
  -17.0050   13.4637  -16.8992 O   0  0  0  0  0  0
  1  2  1  0  0  0
  2  3  1  0  0  0
  2 30  1  0  0  0
  3  4  1  0  0  0
  3 10  1  0  0  0
  4  5  1  0  0  0
  4 26  1  0  0  0
  5  6  1  0  0  0
  5  9  1  0  0  0
  6  7  1  0  0  0
  7  8  2  0  0  0
  9 10  1  0  0  0
  9 11  1  0  0  0
 11 12  1  0  0  0
 11 25  1  0  0  0
 12 13  1  0  0  0
 13 14  1  0  0  0
 14 15  1  0  0  0
 14 24  1  0  0  0
 15 16  1  0  0  0
 16 17  2  0  0  0
 16 22  1  0  0  0
 17 18  1  0  0  0
 17 19  1  0  0  0
 19 20  2  0  0  0
 20 21  1  0  0  0
 21 22  2  0  0  0
 22 23  1  0  0  0
 24 25  1  0  0  0
 26 27  2  0  0  0
 26 28  1  0  0  0
 28 29  1  0  0  0
 28 30  1  0  0  0
 30 31  2  0  0  0
M  END
>  <CHROM.0>
-177.51255379,-169.10607673,-8.52386663,64.31258869,-31.07870406,-177.70377919
82.52597391,-156.93736794

>  <CHROM.1>
-158.23327338,120.55440445,88.17760205,160.11287899,-56.98004172,-21.29563324
19.08201873,-13.61844976,0.66060259,-0.64960006,-3.10549982

>  <Name>
F2636-0159

>  <RI>
2.24485e+07

>  <Rbt.Current_Directory>
/home/adria/Escritorio/rDock_CMTR_LC/2pxcA_model/inputs_sah

>  <Rbt.Executable>
rbdock ($Id: //depot/dev/client3/rdock/2013.1/src/exe/rbdock.cxx#4 $)

>  <Rbt.Library>
libRbt.so (2013.1, Build901 2013/11/27)

>  <Rbt.Parameter_File>
/home/adria/Escritorio/rDock_2013.1_src/data/scripts/dock.prm

>  <Rbt.Receptor>
sah_rdock.prm

>  <SCORE>
-220.011

>  <SCORE.INTER>
-10.3377

>  <SCORE.INTER.CONST>
1

>  <SCORE.INTER.POLAR>
-0.786378

>  <SCORE.INTER.REPUL>
0

>  <SCORE.INTER.ROT>
5

>  <SCORE.INTER.VDW>
-18.064

>  <SCORE.INTER.norm>
-0.344588

>  <SCORE.INTRA>
-204.041

>  <SCORE.INTRA.DIHEDRAL>
-2.66744

>  <SCORE.INTRA.DIHEDRAL.0>
5.71238

>  <SCORE.INTRA.POLAR>
0

>  <SCORE.INTRA.POLAR.0>
0

>  <SCORE.INTRA.REPUL>
0

>  <SCORE.INTRA.REPUL.0>
0

>  <SCORE.INTRA.VDW>
-202.707

>  <SCORE.INTRA.VDW.0>
200.33

>  <SCORE.INTRA.norm>
-6.80137

>  <SCORE.RESTR>
0

>  <SCORE.RESTR.CAVITY>
0

>  <SCORE.RESTR.norm>
0

>  <SCORE.SYSTEM>
-5.63265

>  <SCORE.SYSTEM.CONST>
0

>  <SCORE.SYSTEM.DIHEDRAL>
9.3757

>  <SCORE.SYSTEM.POLAR>
-4.23595

>  <SCORE.SYSTEM.VDW>
4.08173

>  <SCORE.SYSTEM.norm>
-0.187755

>  <SCORE.heavy>
30

>  <SCORE.norm>
-7.33371

$$$$
F2636-0159
  rDOCK(R)          3D
libRbt.so/2013.1/901 2013/11/27
 31 34  0  0  0  0  0  0  0  0999 V2000
  -18.1889   14.5502  -16.7676 C   0  0  0  0  0  0
  -17.6915   15.8981  -17.0006 N   0  3  0  0  0  0
  -18.1305   16.9237  -16.2079 C   0  0  0  0  0  0
  -17.7688   18.2226  -16.3966 C   0  0  0  0  0  0
  -18.4483   18.9400  -15.4405 N   0  0  0  0  0  0
  -18.5992   20.3910  -15.5047 C   0  0  0  0  0  0
  -19.0653   21.0106  -14.2257 C   0  0  0  0  0  0
  -20.1323   21.8169  -14.1189 C   0  0  0  0  0  0
  -19.1842   17.9923  -14.7289 C   0  0  0  0  0  0
  -18.9623   16.7726  -15.1761 N   0  0  0  0  0  0
  -20.2914   18.2426  -14.0152 N   0  0  0  0  0  0
  -21.8966   18.3260  -15.0831 C   0  0  0  0  0  0
  -23.5603   18.8075  -14.1314 C   0  0  0  0  0  0
  -23.5813   19.3515  -12.3554 N   0  0  0  0  0  0
  -23.6422   20.7829  -12.4639 C   0  0  0  0  0  0
  -24.0093   21.1454  -11.0936 C   0  0  0  0  0  0
  -23.2116   22.1021  -10.4582 C   0  0  0  0  0  0
  -21.0801   22.9288  -11.2852 Cl  0  0  0  0  0  0
  -23.9352   22.4457   -9.1762 C   0  0  0  0  0  0
  -24.9572   21.7451   -8.4892 C   0  0  0  0  0  0
  -25.5919   20.7626   -9.1735 C   0  0  0  0  0  0
  -25.1867   20.5344  -10.4900 C   0  0  0  0  0  0
  -26.2255   19.4930  -11.3988 Cl  0  0  0  0  0  0
  -22.0179   19.1569  -11.3757 C   0  0  0  0  0  0
  -20.2968   18.7883  -12.2158 C   0  0  0  0  0  0
  -16.8976   18.6109  -17.4406 C   0  0  0  0  0  0
  -16.5878   19.7657  -17.7159 O   0  0  0  0  0  0
  -16.4147   17.5296  -18.1387 N   0  3  0  0  0  0
  -15.7318   17.7336  -18.8491 H   0  0  0  0  0  0
  -16.7463   16.1912  -17.9705 C   0  0  0  0  0  0
  -16.1951   15.3435  -18.6688 O   0  0  0  0  0  0
  1  2  1  0  0  0
  2  3  1  0  0  0
  2 30  1  0  0  0
  3  4  1  0  0  0
  3 10  1  0  0  0
  4  5  1  0  0  0
  4 26  1  0  0  0
  5  6  1  0  0  0
  5  9  1  0  0  0
  6  7  1  0  0  0
  7  8  2  0  0  0
  9 10  1  0  0  0
  9 11  1  0  0  0
 11 12  1  0  0  0
 11 25  1  0  0  0
 12 13  1  0  0  0
 13 14  1  0  0  0
 14 15  1  0  0  0
 14 24  1  0  0  0
 15 16  1  0  0  0
 16 17  2  0  0  0
 16 22  1  0  0  0
 17 18  1  0  0  0
 17 19  1  0  0  0
 19 20  2  0  0  0
 20 21  1  0  0  0
 21 22  2  0  0  0
 22 23  1  0  0  0
 24 25  1  0  0  0
 26 27  2  0  0  0
 26 28  1  0  0  0
 28 29  1  0  0  0
 28 30  1  0  0  0
 30 31  2  0  0  0
M  END
>  <CHROM.0>
-63.06220368,-168.24108884,-166.48202387,64.64511693,-29.95675942,-58.82218100
-156.67141390,-162.75339688

>  <CHROM.1>
-165.69887366,-126.30274145,81.90062911,165.79479733,127.93051215,-20.82855037
19.29661191,-13.79405495,0.68094422,-0.51503401,-2.65004057

>  <Name>
F2636-0159

>  <RI>
2.24485e+07

>  <Rbt.Current_Directory>
/home/adria/Escritorio/rDock_CMTR_LC/2pxcA_model/inputs_sah

>  <Rbt.Executable>
rbdock ($Id: //depot/dev/client3/rdock/2013.1/src/exe/rbdock.cxx#4 $)

>  <Rbt.Library>
libRbt.so (2013.1, Build901 2013/11/27)

>  <Rbt.Parameter_File>
/home/adria/Escritorio/rDock_2013.1_src/data/scripts/dock.prm

>  <Rbt.Receptor>
sah_rdock.prm

>  <SCORE>
-220.304

>  <SCORE.INTER>
-10.1957

>  <SCORE.INTER.CONST>
1

>  <SCORE.INTER.POLAR>
-0.7524

>  <SCORE.INTER.REPUL>
0

>  <SCORE.INTER.ROT>
5

>  <SCORE.INTER.VDW>
-18.0375

>  <SCORE.INTER.norm>
-0.339855

>  <SCORE.INTRA>
-203.644

>  <SCORE.INTRA.DIHEDRAL>
-2.81238

>  <SCORE.INTRA.DIHEDRAL.0>
5.71238

>  <SCORE.INTRA.POLAR>
0

>  <SCORE.INTRA.POLAR.0>
0

>  <SCORE.INTRA.REPUL>
0

>  <SCORE.INTRA.REPUL.0>
0

>  <SCORE.INTRA.VDW>
-202.237

>  <SCORE.INTRA.VDW.0>
200.33

>  <SCORE.INTRA.norm>
-6.78812

>  <SCORE.RESTR>
0

>  <SCORE.RESTR.CAVITY>
0

>  <SCORE.RESTR.norm>
0

>  <SCORE.SYSTEM>
-6.46416

>  <SCORE.SYSTEM.CONST>
0

>  <SCORE.SYSTEM.DIHEDRAL>
6.46312

>  <SCORE.SYSTEM.POLAR>
-3.72909

>  <SCORE.SYSTEM.VDW>
2.98318

>  <SCORE.SYSTEM.norm>
-0.215472

>  <SCORE.heavy>
30

>  <SCORE.norm>
-7.34345

$$$$
F2636-0159
  rDOCK(R)          3D
libRbt.so/2013.1/901 2013/11/27
 31 34  0  0  0  0  0  0  0  0999 V2000
  -24.3639   19.3819   -9.5948 C   0  0  0  0  0  0
  -24.2466   20.8294   -9.6911 N   0  3  0  0  0  0
  -23.4085   21.3760  -10.6248 C   0  0  0  0  0  0
  -23.1884   22.7145  -10.7405 C   0  0  0  0  0  0
  -22.2614   22.8530  -11.7464 N   0  0  0  0  0  0
  -21.5115   24.0875  -11.9611 C   0  0  0  0  0  0
  -20.7382   24.5445  -10.7652 C   0  0  0  0  0  0
  -19.4062   24.7033  -10.7394 C   0  0  0  0  0  0
  -21.9894   21.5528  -12.1723 C   0  0  0  0  0  0
  -22.7100   20.6676  -11.5135 N   0  0  0  0  0  0
  -20.8743   21.1581  -12.8038 N   0  0  0  0  0  0
  -20.2672   22.4012  -14.1493 C   0  0  0  0  0  0
  -18.6970   21.8461  -15.2130 C   0  0  0  0  0  0
  -17.9483   20.1505  -15.0911 N   0  0  0  0  0  0
  -18.5171   19.4717  -16.2225 C   0  0  0  0  0  0
  -17.6291   18.3116  -16.3198 C   0  0  0  0  0  0
  -16.2542   18.5668  -16.3181 C   0  0  0  0  0  0
  -15.2316   20.7613  -16.5399 Cl  0  0  0  0  0  0
  -15.5913   17.2136  -16.1982 C   0  0  0  0  0  0
  -16.1135   15.9177  -16.4332 C   0  0  0  0  0  0
  -17.4612   15.8079  -16.5227 C   0  0  0  0  0  0
  -18.2104   16.9762  -16.3703 C   0  0  0  0  0  0
  -19.9121   16.7285  -16.1898 Cl  0  0  0  0  0  0
  -18.5276   19.0495  -13.7148 C   0  0  0  0  0  0
  -20.1256   19.4388  -12.6667 C   0  0  0  0  0  0
  -23.8223   23.6514   -9.8918 C   0  0  0  0  0  0
  -23.6170   24.8610   -9.8887 O   0  0  0  0  0  0
  -24.7230   23.0523   -9.0436 N   0  3  0  0  0  0
  -25.2615   23.6735   -8.4632 H   0  0  0  0  0  0
  -24.9872   21.6959   -8.9031 C   0  0  0  0  0  0
  -25.8509   21.3312   -8.1087 O   0  0  0  0  0  0
  1  2  1  0  0  0
  2  3  1  0  0  0
  2 30  1  0  0  0
  3  4  1  0  0  0
  3 10  1  0  0  0
  4  5  1  0  0  0
  4 26  1  0  0  0
  5  6  1  0  0  0
  5  9  1  0  0  0
  6  7  1  0  0  0
  7  8  2  0  0  0
  9 10  1  0  0  0
  9 11  1  0  0  0
 11 12  1  0  0  0
 11 25  1  0  0  0
 12 13  1  0  0  0
 13 14  1  0  0  0
 14 15  1  0  0  0
 14 24  1  0  0  0
 15 16  1  0  0  0
 16 17  2  0  0  0
 16 22  1  0  0  0
 17 18  1  0  0  0
 17 19  1  0  0  0
 19 20  2  0  0  0
 20 21  1  0  0  0
 21 22  2  0  0  0
 22 23  1  0  0  0
 24 25  1  0  0  0
 26 27  2  0  0  0
 26 28  1  0  0  0
 28 29  1  0  0  0
 28 30  1  0  0  0
 30 31  2  0  0  0
M  END
>  <CHROM.0>
171.65732574,-168.74584773,111.57156537,63.87474916,-29.99098002,60.63851137
-157.53996883,-165.02542671

>  <CHROM.1>
56.52622411,120.05351639,-41.54677930,164.22251014,-50.23853648,-20.39537995
20.57436153,-13.12878682,2.48776665,0.60900291,0.33262652

>  <Name>
F2636-0159

>  <RI>
2.24485e+07

>  <Rbt.Current_Directory>
/home/adria/Escritorio/rDock_CMTR_LC/2pxcA_model/inputs_sah

>  <Rbt.Executable>
rbdock ($Id: //depot/dev/client3/rdock/2013.1/src/exe/rbdock.cxx#4 $)

>  <Rbt.Library>
libRbt.so (2013.1, Build901 2013/11/27)

>  <Rbt.Parameter_File>
/home/adria/Escritorio/rDock_2013.1_src/data/scripts/dock.prm

>  <Rbt.Receptor>
sah_rdock.prm

>  <SCORE>
-222.395

>  <SCORE.INTER>
-14.1939

>  <SCORE.INTER.CONST>
1

>  <SCORE.INTER.POLAR>
-0.700064

>  <SCORE.INTER.REPUL>
0

>  <SCORE.INTER.ROT>
5

>  <SCORE.INTER.VDW>
-22.2136

>  <SCORE.INTER.norm>
-0.473129

>  <SCORE.INTRA>
-202.406

>  <SCORE.INTRA.DIHEDRAL>
-2.48312

>  <SCORE.INTRA.DIHEDRAL.0>
5.71238

>  <SCORE.INTRA.POLAR>
0

>  <SCORE.INTRA.POLAR.0>
0

>  <SCORE.INTRA.REPUL>
0

>  <SCORE.INTRA.REPUL.0>
0

>  <SCORE.INTRA.VDW>
-201.164

>  <SCORE.INTRA.VDW.0>
200.33

>  <SCORE.INTRA.norm>
-6.74686

>  <SCORE.RESTR>
0

>  <SCORE.RESTR.CAVITY>
0

>  <SCORE.RESTR.norm>
0

>  <SCORE.SYSTEM>
-5.79506

>  <SCORE.SYSTEM.CONST>
0

>  <SCORE.SYSTEM.DIHEDRAL>
9.47743

>  <SCORE.SYSTEM.POLAR>
-4.29632

>  <SCORE.SYSTEM.VDW>
4.07373

>  <SCORE.SYSTEM.norm>
-0.193169

>  <SCORE.heavy>
30

>  <SCORE.norm>
-7.41316

$$$$
F2636-0159
  rDOCK(R)          3D
libRbt.so/2013.1/901 2013/11/27
 31 34  0  0  0  0  0  0  0  0999 V2000
  -18.8254   15.0731  -17.1815 C   0  0  0  0  0  0
  -18.0198   16.2590  -16.9307 N   0  3  0  0  0  0
  -18.3572   17.0967  -15.9024 C   0  0  0  0  0  0
  -17.7002   18.2595  -15.6382 C   0  0  0  0  0  0
  -18.3625   18.8271  -14.5755 N   0  0  0  0  0  0
  -18.1872   20.2261  -14.1953 C   0  0  0  0  0  0
  -19.0580   21.1758  -14.9549 C   0  0  0  0  0  0
  -19.9859   21.9665  -14.3947 C   0  0  0  0  0  0
  -19.3931   17.9375  -14.2715 C   0  0  0  0  0  0
  -19.3643   16.8783  -15.0553 N   0  0  0  0  0  0
  -20.5257   18.2501  -13.6254 N   0  0  0  0  0  0
  -21.8646   19.0548  -14.7585 C   0  0  0  0  0  0
  -23.5226   19.6566  -13.8673 C   0  0  0  0  0  0
  -23.7318   19.6488  -12.0216 N   0  0  0  0  0  0
  -23.4600   21.0144  -11.6668 C   0  0  0  0  0  0
  -24.7101   21.3764  -10.9961 C   0  0  0  0  0  0
  -25.7656   21.7969  -11.8114 C   0  0  0  0  0  0
  -25.5890   22.3268  -14.1775 Cl  0  0  0  0  0  0
  -26.9702   21.8826  -10.9022 C   0  0  0  0  0  0
  -27.0441   21.9431   -9.4887 C   0  0  0  0  0  0
  -25.9225   21.6149   -8.8026 C   0  0  0  0  0  0
  -24.8018   21.2430   -9.5477 C   0  0  0  0  0  0
  -23.5147   20.5490   -8.6251 Cl  0  0  0  0  0  0
  -22.4420   18.7781  -11.0116 C   0  0  0  0  0  0
  -20.7236   18.2330  -11.7557 C   0  0  0  0  0  0
  -16.6026   18.6907  -16.4187 C   0  0  0  0  0  0
  -16.0115   19.7577  -16.2865 O   0  0  0  0  0  0
  -16.2507   17.7637  -17.3708 N   0  3  0  0  0  0
  -15.4300   17.9784  -17.9121 H   0  0  0  0  0  0
  -16.8837   16.5625  -17.6639 C   0  0  0  0  0  0
  -16.4163   15.8344  -18.5364 O   0  0  0  0  0  0
  1  2  1  0  0  0
  2  3  1  0  0  0
  2 30  1  0  0  0
  3  4  1  0  0  0
  3 10  1  0  0  0
  4  5  1  0  0  0
  4 26  1  0  0  0
  5  6  1  0  0  0
  5  9  1  0  0  0
  6  7  1  0  0  0
  7  8  2  0  0  0
  9 10  1  0  0  0
  9 11  1  0  0  0
 11 12  1  0  0  0
 11 25  1  0  0  0
 12 13  1  0  0  0
 13 14  1  0  0  0
 14 15  1  0  0  0
 14 24  1  0  0  0
 15 16  1  0  0  0
 16 17  2  0  0  0
 16 22  1  0  0  0
 17 18  1  0  0  0
 17 19  1  0  0  0
 19 20  2  0  0  0
 20 21  1  0  0  0
 21 22  2  0  0  0
 22 23  1  0  0  0
 24 25  1  0  0  0
 26 27  2  0  0  0
 26 28  1  0  0  0
 28 29  1  0  0  0
 28 30  1  0  0  0
 30 31  2  0  0  0
M  END
>  <CHROM.0>
-60.79575654,66.15600750,74.00340186,-60.17154931,167.76591350,62.77587813
-157.37569920,-164.84534340

>  <CHROM.1>
84.86591231,118.59036396,81.24587088,122.10044834,-84.42396921,-21.24473365
19.47354891,-13.59834809,-0.48844071,-0.58502688,1.79611947

>  <Name>
F2636-0159

>  <RI>
2.24485e+07

>  <Rbt.Current_Directory>
/home/adria/Escritorio/rDock_CMTR_LC/2pxcA_model/inputs_sah

>  <Rbt.Executable>
rbdock ($Id: //depot/dev/client3/rdock/2013.1/src/exe/rbdock.cxx#4 $)

>  <Rbt.Library>
libRbt.so (2013.1, Build901 2013/11/27)

>  <Rbt.Parameter_File>
/home/adria/Escritorio/rDock_2013.1_src/data/scripts/dock.prm

>  <Rbt.Receptor>
sah_rdock.prm

>  <SCORE>
-214.281

>  <SCORE.INTER>
-7.62283

>  <SCORE.INTER.CONST>
1

>  <SCORE.INTER.POLAR>
0

>  <SCORE.INTER.REPUL>
0

>  <SCORE.INTER.ROT>
5

>  <SCORE.INTER.VDW>
-18.0228

>  <SCORE.INTER.norm>
-0.254094

>  <SCORE.INTRA>
-204.24

>  <SCORE.INTRA.DIHEDRAL>
-0.77513

>  <SCORE.INTRA.DIHEDRAL.0>
5.71238

>  <SCORE.INTRA.POLAR>
0

>  <SCORE.INTRA.POLAR.0>
0

>  <SCORE.INTRA.REPUL>
0

>  <SCORE.INTRA.REPUL.0>
0

>  <SCORE.INTRA.VDW>
-203.853

>  <SCORE.INTRA.VDW.0>
200.33

>  <SCORE.INTRA.norm>
-6.80801

>  <SCORE.RESTR>
0.00764493

>  <SCORE.RESTR.CAVITY>
0.00764493

>  <SCORE.RESTR.norm>
0.000254831

>  <SCORE.SYSTEM>
-2.42559

>  <SCORE.SYSTEM.CONST>
0

>  <SCORE.SYSTEM.DIHEDRAL>
2.83416

>  <SCORE.SYSTEM.POLAR>
-3.70812

>  <SCORE.SYSTEM.VDW>
8.76494

>  <SCORE.SYSTEM.norm>
-0.0808529

>  <SCORE.heavy>
30

>  <SCORE.norm>
-7.1427

$$$$
F2636-0159
  rDOCK(R)          3D
libRbt.so/2013.1/901 2013/11/27
 31 34  0  0  0  0  0  0  0  0999 V2000
  -14.3267   20.6680  -16.4998 C   0  0  0  0  0  0
  -14.9948   19.4304  -16.8743 N   0  3  0  0  0  0
  -16.3251   19.2724  -16.5942 C   0  0  0  0  0  0
  -17.0123   18.1251  -16.8492 C   0  0  0  0  0  0
  -18.2880   18.3455  -16.3863 N   0  0  0  0  0  0
  -19.2436   17.2634  -16.1669 C   0  0  0  0  0  0
  -20.6479   17.6056  -16.5516 C   0  0  0  0  0  0
  -21.6818   17.6354  -15.6970 C   0  0  0  0  0  0
  -18.2712   19.6441  -15.8771 C   0  0  0  0  0  0
  -17.0917   20.2103  -16.0356 N   0  0  0  0  0  0
  -19.1197   20.1315  -14.9603 N   0  0  0  0  0  0
  -19.4460   22.0251  -15.1390 C   0  0  0  0  0  0
  -20.5920   22.8528  -13.7581 C   0  0  0  0  0  0
  -21.1724   21.9353  -12.2509 N   0  0  0  0  0  0
  -20.2449   22.3662  -11.2417 C   0  0  0  0  0  0
  -20.8922   23.5970  -10.7834 C   0  0  0  0  0  0
  -22.2791   23.5542  -10.6098 C   0  0  0  0  0  0
  -23.7333   21.7513  -11.3483 Cl  0  0  0  0  0  0
  -22.6421   24.8540   -9.9287 C   0  0  0  0  0  0
  -21.9088   26.0610   -9.8160 C   0  0  0  0  0  0
  -20.5880   26.0047  -10.1138 C   0  0  0  0  0  0
  -20.0704   24.7662  -10.4979 C   0  0  0  0  0  0
  -18.3443   24.6908  -10.5665 Cl  0  0  0  0  0  0
  -20.8954   20.1016  -12.1982 C   0  0  0  0  0  0
  -19.7020   19.1884  -13.4414 C   0  0  0  0  0  0
  -16.3912   16.9971  -17.4337 C   0  0  0  0  0  0
  -16.9261   15.9094  -17.6238 O   0  0  0  0  0  0
  -15.0852   17.2493  -17.7810 N   0  3  0  0  0  0
  -14.6086   16.5092  -18.2686 H   0  0  0  0  0  0
  -14.3522   18.4067  -17.5519 C   0  0  0  0  0  0
  -13.1937   18.4739  -17.9562 O   0  0  0  0  0  0
  1  2  1  0  0  0
  2  3  1  0  0  0
  2 30  1  0  0  0
  3  4  1  0  0  0
  3 10  1  0  0  0
  4  5  1  0  0  0
  4 26  1  0  0  0
  5  6  1  0  0  0
  5  9  1  0  0  0
  6  7  1  0  0  0
  7  8  2  0  0  0
  9 10  1  0  0  0
  9 11  1  0  0  0
 11 12  1  0  0  0
 11 25  1  0  0  0
 12 13  1  0  0  0
 13 14  1  0  0  0
 14 15  1  0  0  0
 14 24  1  0  0  0
 15 16  1  0  0  0
 16 17  2  0  0  0
 16 22  1  0  0  0
 17 18  1  0  0  0
 17 19  1  0  0  0
 19 20  2  0  0  0
 20 21  1  0  0  0
 21 22  2  0  0  0
 22 23  1  0  0  0
 24 25  1  0  0  0
 26 27  2  0  0  0
 26 28  1  0  0  0
 28 29  1  0  0  0
 28 30  1  0  0  0
 30 31  2  0  0  0
M  END
>  <CHROM.0>
-172.69518713,-71.18100755,-131.81508198,61.49227501,-29.45042926,-57.62628229
-157.67058838,-166.91623156

>  <CHROM.1>
-141.49315774,-118.00180347,-149.84477326,86.16089835,42.48137651,-18.99294572
20.80883257,-14.04302825,-0.99778426,0.31590924,0.63537073

>  <Name>
F2636-0159

>  <RI>
2.24485e+07

>  <Rbt.Current_Directory>
/home/adria/Escritorio/rDock_CMTR_LC/2pxcA_model/inputs_sah

>  <Rbt.Executable>
rbdock ($Id: //depot/dev/client3/rdock/2013.1/src/exe/rbdock.cxx#4 $)

>  <Rbt.Library>
libRbt.so (2013.1, Build901 2013/11/27)

>  <Rbt.Parameter_File>
/home/adria/Escritorio/rDock_2013.1_src/data/scripts/dock.prm

>  <Rbt.Receptor>
sah_rdock.prm

>  <SCORE>
-225.937

>  <SCORE.INTER>
-16.7928

>  <SCORE.INTER.CONST>
1

>  <SCORE.INTER.POLAR>
-0.888005

>  <SCORE.INTER.REPUL>
0.323022

>  <SCORE.INTER.ROT>
5

>  <SCORE.INTER.VDW>
-25.7887

>  <SCORE.INTER.norm>
-0.559761

>  <SCORE.INTRA>
-202.415

>  <SCORE.INTRA.DIHEDRAL>
-1.91202

>  <SCORE.INTRA.DIHEDRAL.0>
5.71238

>  <SCORE.INTRA.POLAR>
0

>  <SCORE.INTRA.POLAR.0>
0

>  <SCORE.INTRA.REPUL>
0

>  <SCORE.INTRA.REPUL.0>
0

>  <SCORE.INTRA.VDW>
-201.459

>  <SCORE.INTRA.VDW.0>
200.33

>  <SCORE.INTRA.norm>
-6.74717

>  <SCORE.RESTR>
0

>  <SCORE.RESTR.CAVITY>
0

>  <SCORE.RESTR.norm>
0

>  <SCORE.SYSTEM>
-6.72923

>  <SCORE.SYSTEM.CONST>
0

>  <SCORE.SYSTEM.DIHEDRAL>
9.1968

>  <SCORE.SYSTEM.POLAR>
-4.47453

>  <SCORE.SYSTEM.REPUL>
0.0351267

>  <SCORE.SYSTEM.VDW>
3.71012

>  <SCORE.SYSTEM.norm>
-0.224308

>  <SCORE.heavy>
30

>  <SCORE.norm>
-7.53124

$$$$
F2636-0159
  rDOCK(R)          3D
libRbt.so/2013.1/901 2013/11/27
 31 34  0  0  0  0  0  0  0  0999 V2000
  -23.9531   24.3360  -13.7210 C   0  0  0  0  0  0
  -24.4542   23.6273  -12.5527 N   0  3  0  0  0  0
  -23.7479   22.5658  -12.0555 C   0  0  0  0  0  0
  -24.1754   21.8069  -11.0091 C   0  0  0  0  0  0
  -23.2252   20.8262  -10.8488 N   0  0  0  0  0  0
  -23.4635   19.6209  -10.0597 C   0  0  0  0  0  0
  -24.4570   18.6828  -10.6682 C   0  0  0  0  0  0
  -25.1103   18.9119  -11.8174 C   0  0  0  0  0  0
  -22.2718   21.0783  -11.8354 C   0  0  0  0  0  0
  -22.5765   22.1499  -12.5396 N   0  0  0  0  0  0
  -21.4185   20.1763  -12.3416 N   0  0  0  0  0  0
  -19.6232   20.8493  -12.5611 C   0  0  0  0  0  0
  -18.3248   19.6259  -13.4112 C   0  0  0  0  0  0
  -18.8159   17.9943  -14.1509 N   0  0  0  0  0  0
  -18.9160   18.2994  -15.5514 C   0  0  0  0  0  0
  -17.5373   18.0603  -15.9823 C   0  0  0  0  0  0
  -17.1339   16.7263  -16.0975 C   0  0  0  0  0  0
  -18.3897   14.8041  -15.2981 Cl  0  0  0  0  0  0
  -15.7773   16.7695  -16.7629 C   0  0  0  0  0  0
  -14.8652   17.8441  -16.9066 C   0  0  0  0  0  0
  -15.3431   19.0889  -16.6645 C   0  0  0  0  0  0
  -16.6869   19.1998  -16.3023 C   0  0  0  0  0  0
  -17.3087   20.8131  -16.3063 Cl  0  0  0  0  0  0
  -20.5348   17.3800  -13.8190 C   0  0  0  0  0  0
  -21.9307   18.5260  -13.0831 C   0  0  0  0  0  0
  -25.3986   22.0671  -10.3488 C   0  0  0  0  0  0
  -25.8815   21.3842   -9.4511 O   0  0  0  0  0  0
  -26.0125   23.2001  -10.8274 N   0  3  0  0  0  0
  -26.8520   23.4814  -10.3492 H   0  0  0  0  0  0
  -25.6047   24.0084  -11.8809 C   0  0  0  0  0  0
  -26.2632   25.0072  -12.1615 O   0  0  0  0  0  0
  1  2  1  0  0  0
  2  3  1  0  0  0
  2 30  1  0  0  0
  3  4  1  0  0  0
  3 10  1  0  0  0
  4  5  1  0  0  0
  4 26  1  0  0  0
  5  6  1  0  0  0
  5  9  1  0  0  0
  6  7  1  0  0  0
  7  8  2  0  0  0
  9 10  1  0  0  0
  9 11  1  0  0  0
 11 12  1  0  0  0
 11 25  1  0  0  0
 12 13  1  0  0  0
 13 14  1  0  0  0
 14 15  1  0  0  0
 14 24  1  0  0  0
 15 16  1  0  0  0
 16 17  2  0  0  0
 16 22  1  0  0  0
 17 18  1  0  0  0
 17 19  1  0  0  0
 19 20  2  0  0  0
 20 21  1  0  0  0
 21 22  2  0  0  0
 22 23  1  0  0  0
 24 25  1  0  0  0
 26 27  2  0  0  0
 26 28  1  0  0  0
 28 29  1  0  0  0
 28 30  1  0  0  0
 30 31  2  0  0  0
M  END
>  <CHROM.0>
-63.14091363,-70.91939113,73.71751080,-61.10885403,168.80280883,-58.37583625
-156.99412712,-164.23190630

>  <CHROM.1>
68.82030848,-1.45894713,-137.13082829,88.24207874,75.01517952,-21.07618224
20.01028624,-13.42383173,-2.77582901,-0.61022926,2.93758795

>  <Name>
F2636-0159

>  <RI>
2.24485e+07

>  <Rbt.Current_Directory>
/home/adria/Escritorio/rDock_CMTR_LC/2pxcA_model/inputs_sah

>  <Rbt.Executable>
rbdock ($Id: //depot/dev/client3/rdock/2013.1/src/exe/rbdock.cxx#4 $)

>  <Rbt.Library>
libRbt.so (2013.1, Build901 2013/11/27)

>  <Rbt.Parameter_File>
/home/adria/Escritorio/rDock_2013.1_src/data/scripts/dock.prm

>  <Rbt.Receptor>
sah_rdock.prm

>  <SCORE>
-215.352

>  <SCORE.INTER>
-8.39409

>  <SCORE.INTER.CONST>
1

>  <SCORE.INTER.POLAR>
-0.0467131

>  <SCORE.INTER.REPUL>
0.042599

>  <SCORE.INTER.ROT>
5

>  <SCORE.INTER.VDW>
-18.8483

>  <SCORE.INTER.norm>
-0.279803

>  <SCORE.INTRA>
-204.105

>  <SCORE.INTRA.DIHEDRAL>
-1.97683

>  <SCORE.INTRA.DIHEDRAL.0>
5.71238

>  <SCORE.INTRA.POLAR>
0

>  <SCORE.INTRA.POLAR.0>
0

>  <SCORE.INTRA.REPUL>
0

>  <SCORE.INTRA.REPUL.0>
0

>  <SCORE.INTRA.VDW>
-203.117

>  <SCORE.INTRA.VDW.0>
200.33

>  <SCORE.INTRA.norm>
-6.80351

>  <SCORE.RESTR>
0

>  <SCORE.RESTR.CAVITY>
0

>  <SCORE.RESTR.norm>
0

>  <SCORE.SYSTEM>
-2.8525

>  <SCORE.SYSTEM.CONST>
0

>  <SCORE.SYSTEM.DIHEDRAL>
3.18964

>  <SCORE.SYSTEM.POLAR>
-4.00001

>  <SCORE.SYSTEM.REPUL>
0.0346103

>  <SCORE.SYSTEM.VDW>
8.97966

>  <SCORE.SYSTEM.norm>
-0.0950832

>  <SCORE.heavy>
30

>  <SCORE.norm>
-7.17839

$$$$
F2636-0159
  rDOCK(R)          3D
libRbt.so/2013.1/901 2013/11/27
 31 34  0  0  0  0  0  0  0  0999 V2000
  -14.2791   20.6978  -16.4560 C   0  0  0  0  0  0
  -15.0385   19.5285  -16.8738 N   0  3  0  0  0  0
  -16.3586   19.4249  -16.5283 C   0  0  0  0  0  0
  -17.1253   18.3382  -16.8199 C   0  0  0  0  0  0
  -18.3588   18.5955  -16.2699 N   0  0  0  0  0  0
  -19.3635   17.5550  -16.0690 C   0  0  0  0  0  0
  -18.9900   16.5412  -15.0347 C   0  0  0  0  0  0
  -18.6323   15.2771  -15.3071 C   0  0  0  0  0  0
  -18.2378   19.8520  -15.6761 C   0  0  0  0  0  0
  -17.0372   20.3619  -15.8642 N   0  0  0  0  0  0
  -19.0052   20.3195  -14.6809 N   0  0  0  0  0  0
  -19.4259   18.9947  -13.3421 C   0  0  0  0  0  0
  -20.6501   19.5632  -11.8986 C   0  0  0  0  0  0
  -21.5228   21.2030  -11.9079 N   0  0  0  0  0  0
  -22.8276   20.8639  -12.4048 C   0  0  0  0  0  0
  -23.4949   20.4589  -11.1660 C   0  0  0  0  0  0
  -23.8346   21.4770  -10.2697 C   0  0  0  0  0  0
  -23.0908   23.7869  -10.4185 Cl  0  0  0  0  0  0
  -24.6937   20.8179   -9.2149 C   0  0  0  0  0  0
  -24.8452   19.4480   -8.8866 C   0  0  0  0  0  0
  -24.3804   18.5480   -9.7868 C   0  0  0  0  0  0
  -23.8016   19.0500  -10.9540 C   0  0  0  0  0  0
  -23.5102   17.8710  -12.1846 Cl  0  0  0  0  0  0
  -20.9969   22.4521  -13.1748 C   0  0  0  0  0  0
  -19.8787   21.9844  -14.7027 C   0  0  0  0  0  0
  -16.6044   17.2217  -17.5141 C   0  0  0  0  0  0
  -17.2122   16.1814  -17.7458 O   0  0  0  0  0  0
  -15.3066   17.4253  -17.9188 N   0  3  0  0  0  0
  -14.9015   16.6963  -18.4820 H   0  0  0  0  0  0
  -14.4950   18.5213  -17.6550 C   0  0  0  0  0  0
  -13.3581   18.5528  -18.1203 O   0  0  0  0  0  0
  1  2  1  0  0  0
  2  3  1  0  0  0
  2 30  1  0  0  0
  3  4  1  0  0  0
  3 10  1  0  0  0
  4  5  1  0  0  0
  4 26  1  0  0  0
  5  6  1  0  0  0
  5  9  1  0  0  0
  6  7  1  0  0  0
  7  8  2  0  0  0
  9 10  1  0  0  0
  9 11  1  0  0  0
 11 12  1  0  0  0
 11 25  1  0  0  0
 12 13  1  0  0  0
 13 14  1  0  0  0
 14 15  1  0  0  0
 14 24  1  0  0  0
 15 16  1  0  0  0
 16 17  2  0  0  0
 16 22  1  0  0  0
 17 18  1  0  0  0
 17 19  1  0  0  0
 19 20  2  0  0  0
 20 21  1  0  0  0
 21 22  2  0  0  0
 22 23  1  0  0  0
 24 25  1  0  0  0
 26 27  2  0  0  0
 26 28  1  0  0  0
 28 29  1  0  0  0
 28 30  1  0  0  0
 30 31  2  0  0  0
M  END
>  <CHROM.0>
-179.45160796,-167.90003358,-166.80047405,-62.28342863,-29.95973441,66.76696906
-36.35386424,-159.07638911

>  <CHROM.1>
67.60099384,-107.80513973,39.69378313,85.49273445,72.94332651,-19.80469272
19.48826118,-13.96836012,-0.40453191,0.62640067,0.27368506

>  <Name>
F2636-0159

>  <RI>
2.24485e+07

>  <Rbt.Current_Directory>
/home/adria/Escritorio/rDock_CMTR_LC/2pxcA_model/inputs_sah

>  <Rbt.Executable>
rbdock ($Id: //depot/dev/client3/rdock/2013.1/src/exe/rbdock.cxx#4 $)

>  <Rbt.Library>
libRbt.so (2013.1, Build901 2013/11/27)

>  <Rbt.Parameter_File>
/home/adria/Escritorio/rDock_2013.1_src/data/scripts/dock.prm

>  <Rbt.Receptor>
sah_rdock.prm

>  <SCORE>
-222.44

>  <SCORE.INTER>
-13.8524

>  <SCORE.INTER.CONST>
1

>  <SCORE.INTER.POLAR>
-0.772464

>  <SCORE.INTER.REPUL>
0.327257

>  <SCORE.INTER.ROT>
5

>  <SCORE.INTER.VDW>
-23.2623

>  <SCORE.INTER.norm>
-0.461748

>  <SCORE.INTRA>
-203.004

>  <SCORE.INTRA.DIHEDRAL>
-1.79195

>  <SCORE.INTRA.DIHEDRAL.0>
5.71238

>  <SCORE.INTRA.POLAR>
0

>  <SCORE.INTRA.POLAR.0>
0

>  <SCORE.INTRA.REPUL>
0

>  <SCORE.INTRA.REPUL.0>
0

>  <SCORE.INTRA.VDW>
-202.108

>  <SCORE.INTRA.VDW.0>
200.33

>  <SCORE.INTRA.norm>
-6.7668

>  <SCORE.RESTR>
0

>  <SCORE.RESTR.CAVITY>
0

>  <SCORE.RESTR.norm>
0

>  <SCORE.SYSTEM>
-5.58356

>  <SCORE.SYSTEM.CONST>
0

>  <SCORE.SYSTEM.DIHEDRAL>
6.68311

>  <SCORE.SYSTEM.POLAR>
-3.65962

>  <SCORE.SYSTEM.VDW>
3.51758

>  <SCORE.SYSTEM.norm>
-0.186119

>  <SCORE.heavy>
30

>  <SCORE.norm>
-7.41466

$$$$
F2636-0159
  rDOCK(R)          3D
libRbt.so/2013.1/901 2013/11/27
 31 34  0  0  0  0  0  0  0  0999 V2000
  -21.3197   24.2213  -12.2141 C   0  0  0  0  0  0
  -22.5162   23.3962  -12.2914 N   0  3  0  0  0  0
  -22.4198   22.1131  -12.7576 C   0  0  0  0  0  0
  -23.4951   21.2950  -12.9248 C   0  0  0  0  0  0
  -22.9951   20.1268  -13.4496 N   0  0  0  0  0  0
  -23.8445   19.1202  -14.0802 C   0  0  0  0  0  0
  -23.8863   19.2091  -15.5727 C   0  0  0  0  0  0
  -24.9779   19.5331  -16.2823 C   0  0  0  0  0  0
  -21.6201   20.3358  -13.5584 C   0  0  0  0  0  0
  -21.2748   21.5252  -13.1080 N   0  0  0  0  0  0
  -20.7965   19.6794  -14.3884 N   0  0  0  0  0  0
  -20.5109   17.8357  -13.8951 C   0  0  0  0  0  0
  -19.2179   16.8229  -14.9942 C   0  0  0  0  0  0
  -18.1707   17.6203  -16.3049 N   0  0  0  0  0  0
  -16.9158   17.8140  -15.6326 C   0  0  0  0  0  0
  -15.9907   17.7852  -16.7671 C   0  0  0  0  0  0
  -15.8912   16.5807  -17.4704 C   0  0  0  0  0  0
  -16.8278   14.4540  -16.7557 Cl  0  0  0  0  0  0
  -15.0636   16.8945  -18.6959 C   0  0  0  0  0  0
  -14.2082   17.9919  -18.9627 C   0  0  0  0  0  0
  -14.3198   19.0676  -18.1460 C   0  0  0  0  0  0
  -15.2676   18.9994  -17.1231 C   0  0  0  0  0  0
  -15.5744   20.4980  -16.3170 Cl  0  0  0  0  0  0
  -18.5684   19.3688  -16.7806 C   0  0  0  0  0  0
  -19.7458   20.5003  -15.7142 C   0  0  0  0  0  0
  -24.8097   21.7186  -12.6213 C   0  0  0  0  0  0
  -25.8301   21.0655  -12.8154 O   0  0  0  0  0  0
  -24.8315   22.9764  -12.0670 N   0  3  0  0  0  0
  -25.7313   23.3070  -11.7608 H   0  0  0  0  0  0
  -23.7595   23.8368  -11.8669 C   0  0  0  0  0  0
  -23.9543   24.9242  -11.3288 O   0  0  0  0  0  0
  1  2  1  0  0  0
  2  3  1  0  0  0
  2 30  1  0  0  0
  3  4  1  0  0  0
  3 10  1  0  0  0
  4  5  1  0  0  0
  4 26  1  0  0  0
  5  6  1  0  0  0
  5  9  1  0  0  0
  6  7  1  0  0  0
  7  8  2  0  0  0
  9 10  1  0  0  0
  9 11  1  0  0  0
 11 12  1  0  0  0
 11 25  1  0  0  0
 12 13  1  0  0  0
 13 14  1  0  0  0
 14 15  1  0  0  0
 14 24  1  0  0  0
 15 16  1  0  0  0
 16 17  2  0  0  0
 16 22  1  0  0  0
 17 18  1  0  0  0
 17 19  1  0  0  0
 19 20  2  0  0  0
 20 21  1  0  0  0
 21 22  2  0  0  0
 22 23  1  0  0  0
 24 25  1  0  0  0
 26 27  2  0  0  0
 26 28  1  0  0  0
 28 29  1  0  0  0
 28 30  1  0  0  0
 30 31  2  0  0  0
M  END
>  <CHROM.0>
178.08409052,-166.10111848,-167.51231314,64.98319180,168.31182690,-179.95016761
-36.07331825,-163.75428044

>  <CHROM.1>
97.56402704,-113.92052827,-70.46940435,152.94336448,-64.76752767,-19.99504257
19.73186087,-14.93208148,-2.51067178,-0.31369660,-2.79118384

>  <Name>
F2636-0159

>  <RI>
2.24485e+07

>  <Rbt.Current_Directory>
/home/adria/Escritorio/rDock_CMTR_LC/2pxcA_model/inputs_sah

>  <Rbt.Executable>
rbdock ($Id: //depot/dev/client3/rdock/2013.1/src/exe/rbdock.cxx#4 $)

>  <Rbt.Library>
libRbt.so (2013.1, Build901 2013/11/27)

>  <Rbt.Parameter_File>
/home/adria/Escritorio/rDock_2013.1_src/data/scripts/dock.prm

>  <Rbt.Receptor>
sah_rdock.prm

>  <SCORE>
-215.987

>  <SCORE.INTER>
-10.8749

>  <SCORE.INTER.CONST>
1

>  <SCORE.INTER.POLAR>
-0.831293

>  <SCORE.INTER.REPUL>
0.244612

>  <SCORE.INTER.ROT>
5

>  <SCORE.INTER.VDW>
-19.6716

>  <SCORE.INTER.norm>
-0.362497

>  <SCORE.INTRA>
-204.15

>  <SCORE.INTRA.DIHEDRAL>
-1.8977

>  <SCORE.INTRA.DIHEDRAL.0>
5.71238

>  <SCORE.INTRA.POLAR>
0

>  <SCORE.INTRA.POLAR.0>
0

>  <SCORE.INTRA.REPUL>
0

>  <SCORE.INTRA.REPUL.0>
0

>  <SCORE.INTRA.VDW>
-203.201

>  <SCORE.INTRA.VDW.0>
200.33

>  <SCORE.INTRA.norm>
-6.80501

>  <SCORE.RESTR>
0

>  <SCORE.RESTR.CAVITY>
0

>  <SCORE.RESTR.norm>
0

>  <SCORE.SYSTEM>
-0.961933

>  <SCORE.SYSTEM.CONST>
0

>  <SCORE.SYSTEM.DIHEDRAL>
3.68954

>  <SCORE.SYSTEM.POLAR>
-3.54938

>  <SCORE.SYSTEM.VDW>
9.2612

>  <SCORE.SYSTEM.norm>
-0.0320644

>  <SCORE.heavy>
30

>  <SCORE.norm>
-7.19957

$$$$
F2636-0159
  rDOCK(R)          3D
libRbt.so/2013.1/901 2013/11/27
 31 34  0  0  0  0  0  0  0  0999 V2000
  -19.0429   25.3256  -10.5331 C   0  0  0  0  0  0
  -20.4625   25.0344  -10.6681 N   0  3  0  0  0  0
  -20.8570   23.8914  -11.3092 C   0  0  0  0  0  0
  -22.1610   23.5737  -11.5376 C   0  0  0  0  0  0
  -22.1379   22.3916  -12.2393 N   0  0  0  0  0  0
  -23.3000   21.8827  -12.9624 C   0  0  0  0  0  0
  -24.1467   20.9414  -12.1662 C   0  0  0  0  0  0
  -25.4567   21.1131  -11.9327 C   0  0  0  0  0  0
  -20.7858   22.0786  -12.3808 C   0  0  0  0  0  0
  -20.0184   22.9712  -11.7881 N   0  0  0  0  0  0
  -20.2656   21.2862  -13.3291 N   0  0  0  0  0  0
  -20.2356   19.4185  -12.8444 C   0  0  0  0  0  0
  -19.3777   18.1905  -14.1333 C   0  0  0  0  0  0
  -18.4650   18.7880  -15.6368 N   0  0  0  0  0  0
  -17.0929   18.7418  -15.2128 C   0  0  0  0  0  0
  -16.4598   18.1624  -16.3990 C   0  0  0  0  0  0
  -16.9808   16.9512  -16.8650 C   0  0  0  0  0  0
  -18.5796   15.5584  -15.6755 Cl  0  0  0  0  0  0
  -16.3089   16.7071  -18.1969 C   0  0  0  0  0  0
  -15.1336   17.2782  -18.7443 C   0  0  0  0  0  0
  -14.6581   18.3951  -18.1419 C   0  0  0  0  0  0
  -15.3696   18.8830  -17.0441 C   0  0  0  0  0  0
  -14.8968   20.4599  -16.5156 Cl  0  0  0  0  0  0
  -18.6173   20.5829  -16.0808 C   0  0  0  0  0  0
  -19.3480   21.9063  -14.8486 C   0  0  0  0  0  0
  -23.2185   24.4146  -11.1199 C   0  0  0  0  0  0
  -24.4086   24.2308  -11.3549 O   0  0  0  0  0  0
  -22.7655   25.4935  -10.3984 N   0  3  0  0  0  0
  -23.4748   26.0921  -10.0095 H   0  0  0  0  0  0
  -21.4489   25.8464  -10.1315 C   0  0  0  0  0  0
  -21.2206   26.8373   -9.4415 O   0  0  0  0  0  0
  1  2  1  0  0  0
  2  3  1  0  0  0
  2 30  1  0  0  0
  3  4  1  0  0  0
  3 10  1  0  0  0
  4  5  1  0  0  0
  4 26  1  0  0  0
  5  6  1  0  0  0
  5  9  1  0  0  0
  6  7  1  0  0  0
  7  8  2  0  0  0
  9 10  1  0  0  0
  9 11  1  0  0  0
 11 12  1  0  0  0
 11 25  1  0  0  0
 12 13  1  0  0  0
 13 14  1  0  0  0
 14 15  1  0  0  0
 14 24  1  0  0  0
 15 16  1  0  0  0
 16 17  2  0  0  0
 16 22  1  0  0  0
 17 18  1  0  0  0
 17 19  1  0  0  0
 19 20  2  0  0  0
 20 21  1  0  0  0
 21 22  2  0  0  0
 22 23  1  0  0  0
 24 25  1  0  0  0
 26 27  2  0  0  0
 26 28  1  0  0  0
 28 29  1  0  0  0
 28 30  1  0  0  0
 30 31  2  0  0  0
M  END
>  <CHROM.0>
-79.36662397,65.13155305,-130.06047475,-63.53715514,168.79937630,56.48553765
-156.30308450,-162.76732530

>  <CHROM.1>
-93.04997831,123.55952675,-88.03978997,136.90534827,-54.38029029,-19.55309846
21.01676852,-13.81249579,-2.21719589,-0.38197484,-2.67645407

>  <Name>
F2636-0159

>  <RI>
2.24485e+07

>  <Rbt.Current_Directory>
/home/adria/Escritorio/rDock_CMTR_LC/2pxcA_model/inputs_sah

>  <Rbt.Executable>
rbdock ($Id: //depot/dev/client3/rdock/2013.1/src/exe/rbdock.cxx#4 $)

>  <Rbt.Library>
libRbt.so (2013.1, Build901 2013/11/27)

>  <Rbt.Parameter_File>
/home/adria/Escritorio/rDock_2013.1_src/data/scripts/dock.prm

>  <Rbt.Receptor>
sah_rdock.prm

>  <SCORE>
-221.813

>  <SCORE.INTER>
-17.7551

>  <SCORE.INTER.CONST>
1

>  <SCORE.INTER.POLAR>
-1.89293

>  <SCORE.INTER.REPUL>
1.02094

>  <SCORE.INTER.ROT>
5

>  <SCORE.INTER.VDW>
-26.8238

>  <SCORE.INTER.norm>
-0.591836

>  <SCORE.INTRA>
-202.973

>  <SCORE.INTRA.DIHEDRAL>
-0.0739025

>  <SCORE.INTRA.DIHEDRAL.0>
5.71238

>  <SCORE.INTRA.POLAR>
0

>  <SCORE.INTRA.POLAR.0>
0

>  <SCORE.INTRA.REPUL>
0

>  <SCORE.INTRA.REPUL.0>
0

>  <SCORE.INTRA.VDW>
-202.936

>  <SCORE.INTRA.VDW.0>
200.33

>  <SCORE.INTRA.norm>
-6.76577

>  <SCORE.RESTR>
0

>  <SCORE.RESTR.CAVITY>
0

>  <SCORE.RESTR.norm>
0

>  <SCORE.SYSTEM>
-1.08518

>  <SCORE.SYSTEM.CONST>
0

>  <SCORE.SYSTEM.DIHEDRAL>
7.51422

>  <SCORE.SYSTEM.POLAR>
-4.18432

>  <SCORE.SYSTEM.VDW>
9.38441

>  <SCORE.SYSTEM.norm>
-0.0361725

>  <SCORE.heavy>
30

>  <SCORE.norm>
-7.39377

$$$$
F2636-0159
  rDOCK(R)          3D
libRbt.so/2013.1/901 2013/11/27
 31 34  0  0  0  0  0  0  0  0999 V2000
  -19.1380   24.8331  -10.2145 C   0  0  0  0  0  0
  -20.5085   24.8284  -10.7045 N   0  3  0  0  0  0
  -21.0798   23.6474  -11.0941 C   0  0  0  0  0  0
  -22.3305   23.5605  -11.6249 C   0  0  0  0  0  0
  -22.5143   22.2319  -11.9269 N   0  0  0  0  0  0
  -23.5806   21.7654  -12.8089 C   0  0  0  0  0  0
  -24.7146   21.1026  -12.0935 C   0  0  0  0  0  0
  -25.9976   21.4827  -12.1907 C   0  0  0  0  0  0
  -21.3298   21.6037  -11.5418 C   0  0  0  0  0  0
  -20.4802   22.4588  -11.0091 N   0  0  0  0  0  0
  -20.8783   20.4347  -12.0187 N   0  0  0  0  0  0
  -19.1287   20.5530  -12.8243 C   0  0  0  0  0  0
  -18.4333   18.9026  -13.6598 C   0  0  0  0  0  0
  -19.4582   17.3657  -13.8553 N   0  0  0  0  0  0
  -19.9018   17.4529  -15.2192 C   0  0  0  0  0  0
  -18.6725   17.0954  -15.9296 C   0  0  0  0  0  0
  -18.1116   18.0758  -16.7540 C   0  0  0  0  0  0
  -19.1871   20.1614  -17.3897 Cl  0  0  0  0  0  0
  -16.7638   17.5323  -17.1702 C   0  0  0  0  0  0
  -16.2628   16.2076  -17.1323 C   0  0  0  0  0  0
  -16.9523   15.3138  -16.3825 C   0  0  0  0  0  0
  -18.0862   15.7788  -15.7135 C   0  0  0  0  0  0
  -18.7388   14.6844  -14.5447 Cl  0  0  0  0  0  0
  -21.0908   17.3009  -12.9765 C   0  0  0  0  0  0
  -21.9272   18.8854  -12.2063 C   0  0  0  0  0  0
  -23.1429   24.7027  -11.8125 C   0  0  0  0  0  0
  -24.2455   24.7106  -12.3506 O   0  0  0  0  0  0
  -22.5556   25.8411  -11.3138 N   0  3  0  0  0  0
  -23.1145   26.6772  -11.3506 H   0  0  0  0  0  0
  -21.2911   25.9709  -10.7538 C   0  0  0  0  0  0
  -20.9313   27.0669  -10.3301 O   0  0  0  0  0  0
  1  2  1  0  0  0
  2  3  1  0  0  0
  2 30  1  0  0  0
  3  4  1  0  0  0
  3 10  1  0  0  0
  4  5  1  0  0  0
  4 26  1  0  0  0
  5  6  1  0  0  0
  5  9  1  0  0  0
  6  7  1  0  0  0
  7  8  2  0  0  0
  9 10  1  0  0  0
  9 11  1  0  0  0
 11 12  1  0  0  0
 11 25  1  0  0  0
 12 13  1  0  0  0
 13 14  1  0  0  0
 14 15  1  0  0  0
 14 24  1  0  0  0
 15 16  1  0  0  0
 16 17  2  0  0  0
 16 22  1  0  0  0
 17 18  1  0  0  0
 17 19  1  0  0  0
 19 20  2  0  0  0
 20 21  1  0  0  0
 21 22  2  0  0  0
 22 23  1  0  0  0
 24 25  1  0  0  0
 26 27  2  0  0  0
 26 28  1  0  0  0
 28 29  1  0  0  0
 28 30  1  0  0  0
 30 31  2  0  0  0
M  END
>  <CHROM.0>
-56.57253893,68.07029280,-164.85658277,-59.37586287,-29.43748559,-176.95499991
-156.64816112,-164.38660844

>  <CHROM.1>
-105.49621035,124.03817001,121.92696149,74.80174924,-116.71331238,-20.47401864
20.49565065,-13.38898641,-2.02886459,-0.42887850,-2.82170847

>  <Name>
F2636-0159

>  <RI>
2.24485e+07

>  <Rbt.Current_Directory>
/home/adria/Escritorio/rDock_CMTR_LC/2pxcA_model/inputs_sah

>  <Rbt.Executable>
rbdock ($Id: //depot/dev/client3/rdock/2013.1/src/exe/rbdock.cxx#4 $)

>  <Rbt.Library>
libRbt.so (2013.1, Build901 2013/11/27)

>  <Rbt.Parameter_File>
/home/adria/Escritorio/rDock_2013.1_src/data/scripts/dock.prm

>  <Rbt.Receptor>
sah_rdock.prm

>  <SCORE>
-229.606

>  <SCORE.INTER>
-19.5435

>  <SCORE.INTER.CONST>
1

>  <SCORE.INTER.POLAR>
-2.33526

>  <SCORE.INTER.REPUL>
0.0995668

>  <SCORE.INTER.ROT>
5

>  <SCORE.INTER.VDW>
-22.5015

>  <SCORE.INTER.norm>
-0.651451

>  <SCORE.INTRA>
-203.167

>  <SCORE.INTRA.DIHEDRAL>
-1.59524

>  <SCORE.INTRA.DIHEDRAL.0>
5.71238

>  <SCORE.INTRA.POLAR>
0

>  <SCORE.INTRA.POLAR.0>
0

>  <SCORE.INTRA.REPUL>
0

>  <SCORE.INTRA.REPUL.0>
0

>  <SCORE.INTRA.VDW>
-202.369

>  <SCORE.INTRA.VDW.0>
200.33

>  <SCORE.INTRA.norm>
-6.77222

>  <SCORE.RESTR>
0

>  <SCORE.RESTR.CAVITY>
0

>  <SCORE.RESTR.norm>
0

>  <SCORE.SYSTEM>
-6.89646

>  <SCORE.SYSTEM.CONST>
0

>  <SCORE.SYSTEM.DIHEDRAL>
6.17587

>  <SCORE.SYSTEM.POLAR>
-3.72994

>  <SCORE.SYSTEM.VDW>
2.6974

>  <SCORE.SYSTEM.norm>
-0.229882

>  <SCORE.heavy>
30

>  <SCORE.norm>
-7.65355

$$$$
F2636-0159
  rDOCK(R)          3D
libRbt.so/2013.1/901 2013/11/27
 31 34  0  0  0  0  0  0  0  0999 V2000
  -19.1700   25.4957  -10.4887 C   0  0  0  0  0  0
  -20.5477   25.0383  -10.3834 N   0  3  0  0  0  0
  -20.9045   23.8426  -10.9456 C   0  0  0  0  0  0
  -22.1813   23.3701  -10.9517 C   0  0  0  0  0  0
  -22.1347   22.1828  -11.6434 N   0  0  0  0  0  0
  -23.3319   21.5255  -12.1603 C   0  0  0  0  0  0
  -23.4584   20.0903  -11.7587 C   0  0  0  0  0  0
  -24.5295   19.5673  -11.1427 C   0  0  0  0  0  0
  -20.7974   22.0261  -12.0080 C   0  0  0  0  0  0
  -20.0537   23.0154  -11.5550 N   0  0  0  0  0  0
  -20.3512   21.2779  -13.0273 N   0  0  0  0  0  0
  -20.4320   19.3802  -12.6861 C   0  0  0  0  0  0
  -19.6850   18.2036  -14.0871 C   0  0  0  0  0  0
  -18.7691   18.8564  -15.5654 N   0  0  0  0  0  0
  -17.3939   18.6910  -15.1837 C   0  0  0  0  0  0
  -16.8633   18.0059  -16.3639 C   0  0  0  0  0  0
  -15.7459   18.5798  -16.9783 C   0  0  0  0  0  0
  -14.8488   20.7851  -16.4859 Cl  0  0  0  0  0  0
  -15.2829   17.5687  -18.0022 C   0  0  0  0  0  0
  -15.9675   16.4659  -18.5700 C   0  0  0  0  0  0
  -17.1016   16.0630  -17.9471 C   0  0  0  0  0  0
  -17.4881   16.7648  -16.8036 C   0  0  0  0  0  0
  -18.7547   16.0226  -15.8902 Cl  0  0  0  0  0  0
  -18.8141   20.6863  -15.8682 C   0  0  0  0  0  0
  -19.4294   21.9542  -14.5201 C   0  0  0  0  0  0
  -23.2471   24.0916  -10.3658 C   0  0  0  0  0  0
  -24.4294   23.7651  -10.3979 O   0  0  0  0  0  0
  -22.8122   25.2322   -9.7338 N   0  3  0  0  0  0
  -23.5131   25.7531   -9.2338 H   0  0  0  0  0  0
  -21.5207   25.7421   -9.6921 C   0  0  0  0  0  0
  -21.3005   26.7685   -9.0533 O   0  0  0  0  0  0
  1  2  1  0  0  0
  2  3  1  0  0  0
  2 30  1  0  0  0
  3  4  1  0  0  0
  3 10  1  0  0  0
  4  5  1  0  0  0
  4 26  1  0  0  0
  5  6  1  0  0  0
  5  9  1  0  0  0
  6  7  1  0  0  0
  7  8  2  0  0  0
  9 10  1  0  0  0
  9 11  1  0  0  0
 11 12  1  0  0  0
 11 25  1  0  0  0
 12 13  1  0  0  0
 13 14  1  0  0  0
 14 15  1  0  0  0
 14 24  1  0  0  0
 15 16  1  0  0  0
 16 17  2  0  0  0
 16 22  1  0  0  0
 17 18  1  0  0  0
 17 19  1  0  0  0
 19 20  2  0  0  0
 20 21  1  0  0  0
 21 22  2  0  0  0
 22 23  1  0  0  0
 24 25  1  0  0  0
 26 27  2  0  0  0
 26 28  1  0  0  0
 28 29  1  0  0  0
 28 30  1  0  0  0
 30 31  2  0  0  0
M  END
>  <CHROM.0>
-167.62678220,-168.19248191,-165.57465766,66.38122529,-30.21458151,178.91955058
-38.85185042,-163.47902769

>  <CHROM.1>
-127.79864344,125.51060916,-73.79840968,129.89119523,126.11165289,-19.67800696
20.86928183,-13.53419479,-2.17628825,-0.47207661,-2.66307709

>  <Name>
F2636-0159

>  <RI>
2.24485e+07

>  <Rbt.Current_Directory>
/home/adria/Escritorio/rDock_CMTR_LC/2pxcA_model/inputs_sah

>  <Rbt.Executable>
rbdock ($Id: //depot/dev/client3/rdock/2013.1/src/exe/rbdock.cxx#4 $)

>  <Rbt.Library>
libRbt.so (2013.1, Build901 2013/11/27)

>  <Rbt.Parameter_File>
/home/adria/Escritorio/rDock_2013.1_src/data/scripts/dock.prm

>  <Rbt.Receptor>
sah_rdock.prm

>  <SCORE>
-221.62

>  <SCORE.INTER>
-14.16

>  <SCORE.INTER.CONST>
1

>  <SCORE.INTER.POLAR>
-0.920234

>  <SCORE.INTER.REPUL>
0.916515

>  <SCORE.INTER.ROT>
5

>  <SCORE.INTER.VDW>
-26.0138

>  <SCORE.INTER.norm>
-0.472

>  <SCORE.INTRA>
-202.001

>  <SCORE.INTRA.DIHEDRAL>
-0.23059

>  <SCORE.INTRA.DIHEDRAL.0>
5.71238

>  <SCORE.INTRA.POLAR>
0

>  <SCORE.INTRA.POLAR.0>
0

>  <SCORE.INTRA.REPUL>
0

>  <SCORE.INTRA.REPUL.0>
0

>  <SCORE.INTRA.VDW>
-201.886

>  <SCORE.INTRA.VDW.0>
200.33

>  <SCORE.INTRA.norm>
-6.73336

>  <SCORE.RESTR>
0

>  <SCORE.RESTR.CAVITY>
0

>  <SCORE.RESTR.norm>
0

>  <SCORE.SYSTEM>
-5.45951

>  <SCORE.SYSTEM.CONST>
0

>  <SCORE.SYSTEM.DIHEDRAL>
7.03026

>  <SCORE.SYSTEM.POLAR>
-3.59319

>  <SCORE.SYSTEM.VDW>
3.24221

>  <SCORE.SYSTEM.norm>
-0.181984

>  <SCORE.heavy>
30

>  <SCORE.norm>
-7.38735

$$$$
F2636-0159
  rDOCK(R)          3D
libRbt.so/2013.1/901 2013/11/27
 31 34  0  0  0  0  0  0  0  0999 V2000
  -19.0458   25.4741  -10.4101 C   0  0  0  0  0  0
  -20.4748   25.2090  -10.4863 N   0  3  0  0  0  0
  -20.9150   24.0598  -11.0850 C   0  0  0  0  0  0
  -22.2326   23.7637  -11.2582 C   0  0  0  0  0  0
  -22.2586   22.5653  -11.9318 N   0  0  0  0  0  0
  -23.4563   22.0637  -12.5997 C   0  0  0  0  0  0
  -24.1681   23.0901  -13.4225 C   0  0  0  0  0  0
  -23.6315   24.2579  -13.8076 C   0  0  0  0  0  0
  -20.9190   22.2215  -12.1148 C   0  0  0  0  0  0
  -20.1129   23.1117  -11.5721 N   0  0  0  0  0  0
  -20.4498   21.3968  -13.0622 N   0  0  0  0  0  0
  -20.4818   19.5360  -12.5517 C   0  0  0  0  0  0
  -19.6992   18.2584  -13.8403 C   0  0  0  0  0  0
  -18.7958   18.7998  -15.3705 N   0  0  0  0  0  0
  -17.4180   18.7059  -14.9740 C   0  0  0  0  0  0
  -16.8300   18.1009  -16.1706 C   0  0  0  0  0  0
  -17.3313   16.8549  -16.5598 C   0  0  0  0  0  0
  -18.8113   15.4576  -15.2300 Cl  0  0  0  0  0  0
  -16.7248   16.5802  -17.9169 C   0  0  0  0  0  0
  -15.6026   17.1685  -18.5508 C   0  0  0  0  0  0
  -15.1357   18.3243  -18.0193 C   0  0  0  0  0  0
  -15.8035   18.8316  -16.9030 C   0  0  0  0  0  0
  -15.3600   20.4438  -16.4628 Cl  0  0  0  0  0  0
  -18.8880   20.5931  -15.8367 C   0  0  0  0  0  0
  -19.5410   21.9603  -14.6088 C   0  0  0  0  0  0
  -23.2572   24.6354  -10.8224 C   0  0  0  0  0  0
  -24.4586   24.4707  -11.0096 O   0  0  0  0  0  0
  -22.7569   25.7213  -10.1440 N   0  3  0  0  0  0
  -23.4395   26.3432   -9.7440 H   0  0  0  0  0  0
  -21.4246   26.0533   -9.9337 C   0  0  0  0  0  0
  -21.1516   27.0550   -9.2764 O   0  0  0  0  0  0
  1  2  1  0  0  0
  2  3  1  0  0  0
  2 30  1  0  0  0
  3  4  1  0  0  0
  3 10  1  0  0  0
  4  5  1  0  0  0
  4 26  1  0  0  0
  5  6  1  0  0  0
  5  9  1  0  0  0
  6  7  1  0  0  0
  7  8  2  0  0  0
  9 10  1  0  0  0
  9 11  1  0  0  0
 11 12  1  0  0  0
 11 25  1  0  0  0
 12 13  1  0  0  0
 13 14  1  0  0  0
 14 15  1  0  0  0
 14 24  1  0  0  0
 15 16  1  0  0  0
 16 17  2  0  0  0
 16 22  1  0  0  0
 17 18  1  0  0  0
 17 19  1  0  0  0
 19 20  2  0  0  0
 20 21  1  0  0  0
 21 22  2  0  0  0
 22 23  1  0  0  0
 24 25  1  0  0  0
 26 27  2  0  0  0
 26 28  1  0  0  0
 28 29  1  0  0  0
 28 30  1  0  0  0
 30 31  2  0  0  0
M  END
>  <CHROM.0>
-79.67620530,66.10262710,-7.43484888,-62.71939222,-31.10346043,-178.82070002
81.87136360,-161.91995872

>  <CHROM.1>
45.59842638,15.88214908,-86.52347779,137.54177134,-59.36395211,-19.69836261
21.23823318,-13.67658511,-2.14559403,-0.36648077,-2.69387978

>  <Name>
F2636-0159

>  <RI>
2.24485e+07

>  <Rbt.Current_Directory>
/home/adria/Escritorio/rDock_CMTR_LC/2pxcA_model/inputs_sah

>  <Rbt.Executable>
rbdock ($Id: //depot/dev/client3/rdock/2013.1/src/exe/rbdock.cxx#4 $)

>  <Rbt.Library>
libRbt.so (2013.1, Build901 2013/11/27)

>  <Rbt.Parameter_File>
/home/adria/Escritorio/rDock_2013.1_src/data/scripts/dock.prm

>  <Rbt.Receptor>
sah_rdock.prm

>  <SCORE>
-223.711

>  <SCORE.INTER>
-16.692

>  <SCORE.INTER.CONST>
1

>  <SCORE.INTER.POLAR>
-1.591

>  <SCORE.INTER.REPUL>
1.17775

>  <SCORE.INTER.ROT>
5

>  <SCORE.INTER.VDW>
-27.5713

>  <SCORE.INTER.norm>
-0.556399

>  <SCORE.INTRA>
-201.06

>  <SCORE.INTRA.DIHEDRAL>
-0.0510078

>  <SCORE.INTRA.DIHEDRAL.0>
5.71238

>  <SCORE.INTRA.POLAR>
0

>  <SCORE.INTRA.POLAR.0>
0

>  <SCORE.INTRA.REPUL>
0

>  <SCORE.INTRA.REPUL.0>
0

>  <SCORE.INTRA.VDW>
-201.034

>  <SCORE.INTRA.VDW.0>
200.33

>  <SCORE.INTRA.norm>
-6.70198

>  <SCORE.RESTR>
0

>  <SCORE.RESTR.CAVITY>
0

>  <SCORE.RESTR.norm>
0

>  <SCORE.SYSTEM>
-5.95941

>  <SCORE.SYSTEM.CONST>
0

>  <SCORE.SYSTEM.DIHEDRAL>
10.3462

>  <SCORE.SYSTEM.POLAR>
-4.24037

>  <SCORE.SYSTEM.VDW>
3.28474

>  <SCORE.SYSTEM.norm>
-0.198647

>  <SCORE.heavy>
30

>  <SCORE.norm>
-7.45703

$$$$
F2636-0159
  rDOCK(R)          3D
libRbt.so/2013.1/901 2013/11/27
 31 34  0  0  0  0  0  0  0  0999 V2000
  -21.5319   24.0267  -12.1799 C   0  0  0  0  0  0
  -22.7033   23.1687  -12.2789 N   0  3  0  0  0  0
  -22.5668   21.8971  -12.7661 C   0  0  0  0  0  0
  -23.6168   21.0511  -12.9540 C   0  0  0  0  0  0
  -23.0798   19.9070  -13.4953 N   0  0  0  0  0  0
  -23.8957   18.8871  -14.1483 C   0  0  0  0  0  0
  -23.9003   18.9768  -15.6413 C   0  0  0  0  0  0
  -24.9724   19.3071  -16.3773 C   0  0  0  0  0  0
  -21.7108   20.1576  -13.5916 C   0  0  0  0  0  0
  -21.4030   21.3487  -13.1189 N   0  0  0  0  0  0
  -20.8635   19.5397  -14.4272 N   0  0  0  0  0  0
  -20.5355   17.6939  -13.9694 C   0  0  0  0  0  0
  -19.2075   16.7373  -15.0770 C   0  0  0  0  0  0
  -18.1693   17.5879  -16.3611 N   0  0  0  0  0  0
  -16.9258   17.7992  -15.6731 C   0  0  0  0  0  0
  -15.9864   17.7854  -16.7961 C   0  0  0  0  0  0
  -15.8576   16.5822  -17.4970 C   0  0  0  0  0  0
  -16.7661   14.4403  -16.7915 Cl  0  0  0  0  0  0
  -15.0206   16.9092  -18.7125 C   0  0  0  0  0  0
  -14.1810   18.0210  -18.9700 C   0  0  0  0  0  0
  -14.3211   19.0952  -18.1558 C   0  0  0  0  0  0
  -15.2801   19.0116  -17.1445 C   0  0  0  0  0  0
  -15.6225   20.5053  -16.3439 Cl  0  0  0  0  0  0
  -18.6071   19.3355  -16.8042 C   0  0  0  0  0  0
  -19.8223   20.4144  -15.7258 C   0  0  0  0  0  0
  -24.9450   21.4311  -12.6519 C   0  0  0  0  0  0
  -25.9447   20.7519  -12.8637 O   0  0  0  0  0  0
  -25.0067   22.6780  -12.0766 N   0  3  0  0  0  0
  -25.9176   22.9771  -11.7708 H   0  0  0  0  0  0
  -23.9615   23.5656  -11.8551 C   0  0  0  0  0  0
  -24.1911   24.6375  -11.2999 O   0  0  0  0  0  0
  1  2  1  0  0  0
  2  3  1  0  0  0
  2 30  1  0  0  0
  3  4  1  0  0  0
  3 10  1  0  0  0
  4  5  1  0  0  0
  4 26  1  0  0  0
  5  6  1  0  0  0
  5  9  1  0  0  0
  6  7  1  0  0  0
  7  8  2  0  0  0
  9 10  1  0  0  0
  9 11  1  0  0  0
 11 12  1  0  0  0
 11 25  1  0  0  0
 12 13  1  0  0  0
 13 14  1  0  0  0
 14 15  1  0  0  0
 14 24  1  0  0  0
 15 16  1  0  0  0
 16 17  2  0  0  0
 16 22  1  0  0  0
 17 18  1  0  0  0
 17 19  1  0  0  0
 19 20  2  0  0  0
 20 21  1  0  0  0
 21 22  2  0  0  0
 22 23  1  0  0  0
 24 25  1  0  0  0
 26 27  2  0  0  0
 26 28  1  0  0  0
 28 29  1  0  0  0
 28 30  1  0  0  0
 30 31  2  0  0  0
M  END
>  <CHROM.0>
-61.09668289,-166.40300537,-129.02744210,64.51753049,-31.61135360,-62.70989690
-156.20245011,-161.80200532

>  <CHROM.1>
99.18724515,-112.64585597,-70.12069271,151.65238284,-64.95939718,-20.05649328
19.60613698,-14.96096393,-2.53980463,-0.31788769,-2.78836270

>  <Name>
F2636-0159

>  <RI>
2.24485e+07

>  <Rbt.Current_Directory>
/home/adria/Escritorio/rDock_CMTR_LC/2pxcA_model/inputs_sah

>  <Rbt.Executable>
rbdock ($Id: //depot/dev/client3/rdock/2013.1/src/exe/rbdock.cxx#4 $)

>  <Rbt.Library>
libRbt.so (2013.1, Build901 2013/11/27)

>  <Rbt.Parameter_File>
/home/adria/Escritorio/rDock_2013.1_src/data/scripts/dock.prm

>  <Rbt.Receptor>
sah_rdock.prm

>  <SCORE>
-218.502

>  <SCORE.INTER>
-8.23375

>  <SCORE.INTER.CONST>
1

>  <SCORE.INTER.POLAR>
0

>  <SCORE.INTER.REPUL>
0.136336

>  <SCORE.INTER.ROT>
5

>  <SCORE.INTER.VDW>
-19.3154

>  <SCORE.INTER.norm>
-0.274458

>  <SCORE.INTRA>
-204.136

>  <SCORE.INTRA.DIHEDRAL>
-1.74271

>  <SCORE.INTRA.DIHEDRAL.0>
5.71238

>  <SCORE.INTRA.POLAR>
0

>  <SCORE.INTRA.POLAR.0>
0

>  <SCORE.INTRA.REPUL>
0

>  <SCORE.INTRA.REPUL.0>
0

>  <SCORE.INTRA.VDW>
-203.264

>  <SCORE.INTRA.VDW.0>
200.33

>  <SCORE.INTRA.norm>
-6.80452

>  <SCORE.RESTR>
0

>  <SCORE.RESTR.CAVITY>
0

>  <SCORE.RESTR.norm>
0

>  <SCORE.SYSTEM>
-6.13255

>  <SCORE.SYSTEM.CONST>
0

>  <SCORE.SYSTEM.DIHEDRAL>
9.39175

>  <SCORE.SYSTEM.POLAR>
-4.28653

>  <SCORE.SYSTEM.VDW>
3.74578

>  <SCORE.SYSTEM.norm>
-0.204418

>  <SCORE.heavy>
30

>  <SCORE.norm>
-7.2834

$$$$
F2636-0159
  rDOCK(R)          3D
libRbt.so/2013.1/901 2013/11/27
 31 34  0  0  0  0  0  0  0  0999 V2000
  -14.4266   20.6140  -16.2673 C   0  0  0  0  0  0
  -15.2764   19.5415  -16.7631 N   0  3  0  0  0  0
  -16.6025   19.5228  -16.4252 C   0  0  0  0  0  0
  -17.4534   18.5245  -16.7896 C   0  0  0  0  0  0
  -18.6649   18.8439  -16.2233 N   0  0  0  0  0  0
  -19.7520   17.8777  -16.0932 C   0  0  0  0  0  0
  -20.9540   18.2000  -16.9229 C   0  0  0  0  0  0
  -22.2085   18.2547  -16.4503 C   0  0  0  0  0  0
  -18.4451   20.0433  -15.5458 C   0  0  0  0  0  0
  -17.2060   20.4652  -15.6991 N   0  0  0  0  0  0
  -19.1772   20.5037  -14.5210 N   0  0  0  0  0  0
  -19.7644   19.1216  -13.3088 C   0  0  0  0  0  0
  -20.9485   19.6929  -11.8334 C   0  0  0  0  0  0
  -21.6393   21.4125  -11.7068 N   0  0  0  0  0  0
  -22.9630   21.2619  -12.2449 C   0  0  0  0  0  0
  -23.7063   22.2083  -11.4109 C   0  0  0  0  0  0
  -23.5779   22.0656  -10.0258 C   0  0  0  0  0  0
  -22.5396   20.1790   -8.8973 Cl  0  0  0  0  0  0
  -24.2475   23.2826   -9.4295 C   0  0  0  0  0  0
  -25.1642   24.1950  -10.0079 C   0  0  0  0  0  0
  -25.2838   24.1696  -11.3575 C   0  0  0  0  0  0
  -24.4919   23.2542  -12.0535 C   0  0  0  0  0  0
  -24.4616   23.4770  -13.7678 Cl  0  0  0  0  0  0
  -20.9572   22.7020  -12.8531 C   0  0  0  0  0  0
  -19.8659   22.2494  -14.4048 C   0  0  0  0  0  0
  -17.0215   17.4187  -17.5580 C   0  0  0  0  0  0
  -17.7108   16.4495  -17.8595 O   0  0  0  0  0  0
  -15.7092   17.5425  -17.9481 N   0  3  0  0  0  0
  -15.3619   16.8226  -18.5595 H   0  0  0  0  0  0
  -14.8126   18.5484  -17.6109 C   0  0  0  0  0  0
  -13.6744   18.5183  -18.0732 O   0  0  0  0  0  0
  1  2  1  0  0  0
  2  3  1  0  0  0
  2 30  1  0  0  0
  3  4  1  0  0  0
  3 10  1  0  0  0
  4  5  1  0  0  0
  4 26  1  0  0  0
  5  6  1  0  0  0
  5  9  1  0  0  0
  6  7  1  0  0  0
  7  8  2  0  0  0
  9 10  1  0  0  0
  9 11  1  0  0  0
 11 12  1  0  0  0
 11 25  1  0  0  0
 12 13  1  0  0  0
 13 14  1  0  0  0
 14 15  1  0  0  0
 14 24  1  0  0  0
 15 16  1  0  0  0
 16 17  2  0  0  0
 16 22  1  0  0  0
 17 18  1  0  0  0
 17 19  1  0  0  0
 19 20  2  0  0  0
 20 21  1  0  0  0
 21 22  2  0  0  0
 22 23  1  0  0  0
 24 25  1  0  0  0
 26 27  2  0  0  0
 26 28  1  0  0  0
 28 29  1  0  0  0
 28 30  1  0  0  0
 30 31  2  0  0  0
M  END
>  <CHROM.0>
-59.60314591,68.03973246,73.66945677,63.24886426,168.30912848,-58.60333612
80.09158578,-164.09235194

>  <CHROM.1>
-113.81106918,-128.66380119,37.64295053,144.99215290,-52.86406704,-20.19746024
20.42673708,-14.11780016,-0.67730767,-0.39685059,1.44158125

>  <Name>
F2636-0159

>  <RI>
2.24485e+07

>  <Rbt.Current_Directory>
/home/adria/Escritorio/rDock_CMTR_LC/2pxcA_model/inputs_sah

>  <Rbt.Executable>
rbdock ($Id: //depot/dev/client3/rdock/2013.1/src/exe/rbdock.cxx#4 $)

>  <Rbt.Library>
libRbt.so (2013.1, Build901 2013/11/27)

>  <Rbt.Parameter_File>
/home/adria/Escritorio/rDock_2013.1_src/data/scripts/dock.prm

>  <Rbt.Receptor>
sah_rdock.prm

>  <SCORE>
-220.159

>  <SCORE.INTER>
-15.1921

>  <SCORE.INTER.CONST>
1

>  <SCORE.INTER.POLAR>
-0.870014

>  <SCORE.INTER.REPUL>
0.443489

>  <SCORE.INTER.ROT>
5

>  <SCORE.INTER.VDW>
-24.8515

>  <SCORE.INTER.norm>
-0.506402

>  <SCORE.INTRA>
-202.636

>  <SCORE.INTRA.DIHEDRAL>
-0.528746

>  <SCORE.INTRA.DIHEDRAL.0>
5.71238

>  <SCORE.INTRA.POLAR>
0

>  <SCORE.INTRA.POLAR.0>
0

>  <SCORE.INTRA.REPUL>
0

>  <SCORE.INTRA.REPUL.0>
0

>  <SCORE.INTRA.VDW>
-202.372

>  <SCORE.INTRA.VDW.0>
200.33

>  <SCORE.INTRA.norm>
-6.75454

>  <SCORE.RESTR>
0

>  <SCORE.RESTR.CAVITY>
0

>  <SCORE.RESTR.norm>
0

>  <SCORE.SYSTEM>
-2.33066

>  <SCORE.SYSTEM.CONST>
0

>  <SCORE.SYSTEM.DIHEDRAL>
2.73552

>  <SCORE.SYSTEM.POLAR>
-3.55971

>  <SCORE.SYSTEM.VDW>
8.40461

>  <SCORE.SYSTEM.norm>
-0.0776885

>  <SCORE.heavy>
30

>  <SCORE.norm>
-7.33863

$$$$
