F5578-1758
  rDOCK(R)          3D
libRbt.so/2013.1/901 2013/11/27
 32 36  0  0  0  0  0  0  0  0999 V2000
  -16.6980   12.1806  -17.0042 C   0  0  0  0  0  0
  -17.7680   12.8014  -17.8808 C   0  0  0  0  0  0
  -17.9213   14.2856  -17.6972 C   0  0  0  0  0  0
  -17.3274   15.2523  -18.5175 C   0  0  0  0  0  0
  -17.5031   16.6196  -18.2581 C   0  0  0  0  0  0
  -18.2517   17.0444  -17.1498 C   0  0  0  0  0  0
  -18.8499   16.0629  -16.3631 C   0  0  0  0  0  0
  -18.7249   14.7118  -16.6502 C   0  0  0  0  0  0
  -18.3178   18.4475  -16.8517 N   0  0  0  0  0  0
  -17.1832   19.1734  -16.9782 N   0  0  0  0  0  0
  -17.4375   20.3142  -16.3571 C   0  0  0  0  0  0
  -18.7487   20.4119  -15.7990 C   0  0  0  0  0  0
  -19.0247   21.6685  -14.9723 C   0  0  0  0  0  0
  -18.3755   22.6701  -15.1872 O   0  0  0  0  0  0
  -19.9505   21.6877  -13.9113 N   0  0  0  0  0  0
  -19.7468   20.8030  -12.8472 C   0  0  0  0  0  0
  -20.8961   20.3432  -12.0138 C   0  0  0  0  0  0
  -21.8414   21.4460  -11.7736 C   0  0  0  0  0  0
  -21.8063   22.5718  -12.5086 C   0  0  0  0  0  0
  -20.8294   22.8336  -13.6505 C   0  0  0  0  0  0
  -22.7521   21.1355  -10.6734 C   0  0  0  0  0  0
  -22.3487   20.2198   -9.6972 C   0  0  0  0  0  0
  -23.1638   19.9683   -8.5964 C   0  0  0  0  0  0
  -24.3705   20.6523   -8.4541 C   0  0  0  0  0  0
  -24.7401   21.6233   -9.3850 C   0  0  0  0  0  0
  -23.9260   21.8749  -10.4891 C   0  0  0  0  0  0
  -19.3578   19.2304  -16.3238 C   0  0  0  0  0  0
  -20.6908   18.7640  -16.3959 N   0  0  0  0  0  0
  -21.1043   17.5799  -17.0040 C   0  0  0  0  0  0
  -22.4821   17.5360  -17.0507 C   0  0  0  0  0  0
  -22.9456   18.7353  -16.4860 C   0  0  0  0  0  0
  -21.8541   19.3202  -15.8712 C   0  0  0  0  0  0
  1  2  1  0  0  0
  2  3  1  0  0  0
  3  4  2  0  0  0
  3  8  1  0  0  0
  4  5  1  0  0  0
  5  6  2  0  0  0
  6  7  1  0  0  0
  6  9  1  0  0  0
  7  8  2  0  0  0
  9 10  1  0  0  0
  9 27  1  0  0  0
 10 11  2  0  0  0
 11 12  1  0  0  0
 12 13  1  0  0  0
 12 27  2  0  0  0
 13 14  2  0  0  0
 13 15  1  0  0  0
 15 16  1  0  0  0
 15 20  1  0  0  0
 16 17  1  0  0  0
 17 18  1  0  0  0
 18 19  2  0  0  0
 18 21  1  0  0  0
 19 20  1  0  0  0
 21 22  2  0  0  0
 21 26  1  0  0  0
 22 23  1  0  0  0
 23 24  2  0  0  0
 24 25  1  0  0  0
 25 26  2  0  0  0
 27 28  1  0  0  0
 28 29  1  0  0  0
 28 32  1  0  0  0
 29 30  2  0  0  0
 30 31  1  0  0  0
 31 32  2  0  0  0
M  END
>  <CHROM.0>
-65.28895583,-74.24989837,75.05532314,64.00700729,-30.58796947,61.54837258
83.51163858,-165.07376497

>  <CHROM.1>
97.02612432,-40.94304238,24.84485005,58.73757727,24.97260474,-2.52915374
-20.18073406,18.99382237,-14.66825674,0.75923969,-0.87739956,-2.97022261

>  <Name>
F5578-1758

>  <RI>
2.21822e+07

>  <Rbt.Current_Directory>
/home/adria/Escritorio/rDock_CMTR_LC/2pxcA_model/inputs_sah

>  <Rbt.Executable>
rbdock ($Id: //depot/dev/client3/rdock/2013.1/src/exe/rbdock.cxx#4 $)

>  <Rbt.Library>
libRbt.so (2013.1, Build901 2013/11/27)

>  <Rbt.Parameter_File>
/home/adria/Escritorio/rDock_2013.1_src/data/scripts/dock.prm

>  <Rbt.Receptor>
sah_rdock.prm

>  <SCORE>
-62.5876

>  <SCORE.INTER>
-11.2044

>  <SCORE.INTER.CONST>
1

>  <SCORE.INTER.POLAR>
-0.159596

>  <SCORE.INTER.REPUL>
0

>  <SCORE.INTER.ROT>
6

>  <SCORE.INTER.VDW>
-22.0618

>  <SCORE.INTER.norm>
-0.350138

>  <SCORE.INTRA>
-43.6643

>  <SCORE.INTRA.DIHEDRAL>
-86.9439

>  <SCORE.INTRA.DIHEDRAL.0>
98.0328

>  <SCORE.INTRA.POLAR>
0

>  <SCORE.INTRA.POLAR.0>
0

>  <SCORE.INTRA.REPUL>
0

>  <SCORE.INTRA.REPUL.0>
0

>  <SCORE.INTRA.VDW>
-0.192396

>  <SCORE.INTRA.VDW.0>
1.05034

>  <SCORE.INTRA.norm>
-1.36451

>  <SCORE.RESTR>
0

>  <SCORE.RESTR.CAVITY>
0

>  <SCORE.RESTR.norm>
0

>  <SCORE.SYSTEM>
-7.71881

>  <SCORE.SYSTEM.CONST>
0

>  <SCORE.SYSTEM.DIHEDRAL>
6.7172

>  <SCORE.SYSTEM.POLAR>
-4.08543

>  <SCORE.SYSTEM.REPUL>
0.0406908

>  <SCORE.SYSTEM.VDW>
2.60962

>  <SCORE.SYSTEM.norm>
-0.241213

>  <SCORE.heavy>
32

>  <SCORE.norm>
-1.95586

$$$$
F5578-1758
  rDOCK(R)          3D
libRbt.so/2013.1/901 2013/11/27
 32 36  0  0  0  0  0  0  0  0999 V2000
  -26.4572   22.6623   -7.8434 C   0  0  0  0  0  0
  -26.1302   21.2444   -8.2693 C   0  0  0  0  0  0
  -24.8832   21.1299   -9.1013 C   0  0  0  0  0  0
  -24.7020   21.7407  -10.3480 C   0  0  0  0  0  0
  -23.5129   21.5597  -11.0696 C   0  0  0  0  0  0
  -22.4941   20.7345  -10.5695 C   0  0  0  0  0  0
  -22.6906   20.1569   -9.3173 C   0  0  0  0  0  0
  -23.8415   20.3797   -8.5762 C   0  0  0  0  0  0
  -21.3390   20.4837  -11.3849 N   0  0  0  0  0  0
  -20.2978   21.3417  -11.2847 N   0  0  0  0  0  0
  -19.5351   21.0758  -12.3333 C   0  0  0  0  0  0
  -20.0184   20.0270  -13.1737 C   0  0  0  0  0  0
  -19.2203   19.7843  -14.4554 C   0  0  0  0  0  0
  -18.5561   20.6883  -14.9166 O   0  0  0  0  0  0
  -19.2884   18.5735  -15.1712 N   0  0  0  0  0  0
  -18.9471   17.3948  -14.4999 C   0  0  0  0  0  0
  -18.4417   16.2117  -15.2558 C   0  0  0  0  0  0
  -19.1710   16.0520  -16.5247 C   0  0  0  0  0  0
  -19.9171   17.0482  -17.0343 C   0  0  0  0  0  0
  -20.0848   18.4226  -16.3945 C   0  0  0  0  0  0
  -18.9686   14.7195  -17.0903 C   0  0  0  0  0  0
  -18.7323   13.6454  -16.2273 C   0  0  0  0  0  0
  -18.6173   12.3538  -16.7352 C   0  0  0  0  0  0
  -18.7666   12.1289  -18.1032 C   0  0  0  0  0  0
  -19.0798   13.1863  -18.9576 C   0  0  0  0  0  0
  -19.1932   14.4807  -18.4508 C   0  0  0  0  0  0
  -21.1118   19.5353  -12.3959 C   0  0  0  0  0  0
  -21.9195   18.3765  -12.4628 N   0  0  0  0  0  0
  -21.8074   17.3631  -13.4132 C   0  0  0  0  0  0
  -22.8682   16.4899  -13.2913 C   0  0  0  0  0  0
  -23.6832   16.9832  -12.2596 C   0  0  0  0  0  0
  -22.9458   17.9615  -11.6187 C   0  0  0  0  0  0
  1  2  1  0  0  0
  2  3  1  0  0  0
  3  4  2  0  0  0
  3  8  1  0  0  0
  4  5  1  0  0  0
  5  6  2  0  0  0
  6  7  1  0  0  0
  6  9  1  0  0  0
  7  8  2  0  0  0
  9 10  1  0  0  0
  9 27  1  0  0  0
 10 11  2  0  0  0
 11 12  1  0  0  0
 12 13  1  0  0  0
 12 27  2  0  0  0
 13 14  2  0  0  0
 13 15  1  0  0  0
 15 16  1  0  0  0
 15 20  1  0  0  0
 16 17  1  0  0  0
 17 18  1  0  0  0
 18 19  2  0  0  0
 18 21  1  0  0  0
 19 20  1  0  0  0
 21 22  2  0  0  0
 21 26  1  0  0  0
 22 23  1  0  0  0
 23 24  2  0  0  0
 24 25  1  0  0  0
 25 26  2  0  0  0
 27 28  1  0  0  0
 28 29  1  0  0  0
 28 32  1  0  0  0
 29 30  2  0  0  0
 30 31  1  0  0  0
 31 32  2  0  0  0
M  END
>  <CHROM.0>
-179.62436064,-74.57417645,-128.45267490,148.77174599,167.82239732,61.73843421
-157.03813631,-162.43145519

>  <CHROM.1>
-61.45835629,88.99056922,-24.01635886,-58.15841323,29.50923715,179.67915889
-21.16875170,18.29034862,-13.37126684,2.17463924,0.63789102,0.46806625

>  <Name>
F5578-1758

>  <RI>
2.21822e+07

>  <Rbt.Current_Directory>
/home/adria/Escritorio/rDock_CMTR_LC/2pxcA_model/inputs_sah

>  <Rbt.Executable>
rbdock ($Id: //depot/dev/client3/rdock/2013.1/src/exe/rbdock.cxx#4 $)

>  <Rbt.Library>
libRbt.so (2013.1, Build901 2013/11/27)

>  <Rbt.Parameter_File>
/home/adria/Escritorio/rDock_2013.1_src/data/scripts/dock.prm

>  <Rbt.Receptor>
sah_rdock.prm

>  <SCORE>
-50.0087

>  <SCORE.INTER>
-8.78764

>  <SCORE.INTER.CONST>
1

>  <SCORE.INTER.POLAR>
0

>  <SCORE.INTER.REPUL>
0

>  <SCORE.INTER.ROT>
6

>  <SCORE.INTER.VDW>
-20.1876

>  <SCORE.INTER.norm>
-0.274614

>  <SCORE.INTRA>
-42.4932

>  <SCORE.INTRA.DIHEDRAL>
-80.258

>  <SCORE.INTRA.DIHEDRAL.0>
98.0328

>  <SCORE.INTRA.POLAR>
0

>  <SCORE.INTRA.POLAR.0>
0

>  <SCORE.INTRA.REPUL>
0

>  <SCORE.INTRA.REPUL.0>
0

>  <SCORE.INTRA.VDW>
-2.36414

>  <SCORE.INTRA.VDW.0>
1.05034

>  <SCORE.INTRA.norm>
-1.32791

>  <SCORE.RESTR>
0.043206

>  <SCORE.RESTR.CAVITY>
0.043206

>  <SCORE.RESTR.norm>
0.00135019

>  <SCORE.SYSTEM>
1.22891

>  <SCORE.SYSTEM.CONST>
0

>  <SCORE.SYSTEM.DIHEDRAL>
10.5609

>  <SCORE.SYSTEM.POLAR>
-4.51555

>  <SCORE.SYSTEM.REPUL>
0.0412247

>  <SCORE.SYSTEM.VDW>
11.0952

>  <SCORE.SYSTEM.norm>
0.0384034

>  <SCORE.heavy>
32

>  <SCORE.norm>
-1.56277

$$$$
F5578-1758
  rDOCK(R)          3D
libRbt.so/2013.1/901 2013/11/27
 32 36  0  0  0  0  0  0  0  0999 V2000
  -15.2143   13.5362  -18.9712 C   0  0  0  0  0  0
  -16.3399   12.8416  -18.2300 C   0  0  0  0  0  0
  -17.2177   13.7738  -17.4422 C   0  0  0  0  0  0
  -18.2204   14.5783  -17.9968 C   0  0  0  0  0  0
  -18.9773   15.4402  -17.1895 C   0  0  0  0  0  0
  -18.7206   15.5368  -15.8133 C   0  0  0  0  0  0
  -17.7330   14.7096  -15.2836 C   0  0  0  0  0  0
  -17.0219   13.8153  -16.0698 C   0  0  0  0  0  0
  -19.4386   16.5094  -15.0385 N   0  0  0  0  0  0
  -19.9230   16.1245  -13.8353 N   0  0  0  0  0  0
  -20.7812   17.0728  -13.4944 C   0  0  0  0  0  0
  -20.9037   18.1365  -14.4396 C   0  0  0  0  0  0
  -21.9770   19.1800  -14.1270 C   0  0  0  0  0  0
  -23.0935   19.0305  -14.5765 O   0  0  0  0  0  0
  -21.7009   20.3555  -13.4024 N   0  0  0  0  0  0
  -22.0129   20.3739  -12.0391 C   0  0  0  0  0  0
  -22.3002   21.6633  -11.3450 C   0  0  0  0  0  0
  -21.3998   22.7256  -11.8226 C   0  0  0  0  0  0
  -20.6919   22.5865  -12.9577 C   0  0  0  0  0  0
  -20.7410   21.3633  -13.8676 C   0  0  0  0  0  0
  -21.3986   23.8702  -10.9136 C   0  0  0  0  0  0
  -20.4399   24.8727  -11.0870 C   0  0  0  0  0  0
  -20.4681   26.0118  -10.2863 C   0  0  0  0  0  0
  -21.4713   26.1647   -9.3300 C   0  0  0  0  0  0
  -22.4749   25.2036   -9.2067 C   0  0  0  0  0  0
  -22.4469   24.0613  -10.0064 C   0  0  0  0  0  0
  -19.8496   17.8161  -15.3499 C   0  0  0  0  0  0
  -19.2149   18.5176  -16.4009 N   0  0  0  0  0  0
  -18.1256   18.0597  -17.1403 C   0  0  0  0  0  0
  -17.6524   19.0719  -17.9491 C   0  0  0  0  0  0
  -18.4440   20.2024  -17.6894 C   0  0  0  0  0  0
  -19.5274   19.7554  -16.9559 C   0  0  0  0  0  0
  1  2  1  0  0  0
  2  3  1  0  0  0
  3  4  2  0  0  0
  3  8  1  0  0  0
  4  5  1  0  0  0
  5  6  2  0  0  0
  6  7  1  0  0  0
  6  9  1  0  0  0
  7  8  2  0  0  0
  9 10  1  0  0  0
  9 27  1  0  0  0
 10 11  2  0  0  0
 11 12  1  0  0  0
 12 13  1  0  0  0
 12 27  2  0  0  0
 13 14  2  0  0  0
 13 15  1  0  0  0
 15 16  1  0  0  0
 15 20  1  0  0  0
 16 17  1  0  0  0
 17 18  1  0  0  0
 18 19  2  0  0  0
 18 21  1  0  0  0
 19 20  1  0  0  0
 21 22  2  0  0  0
 21 26  1  0  0  0
 22 23  1  0  0  0
 23 24  2  0  0  0
 24 25  1  0  0  0
 25 26  2  0  0  0
 27 28  1  0  0  0
 28 29  1  0  0  0
 28 32  1  0  0  0
 29 30  2  0  0  0
 30 31  1  0  0  0
 31 32  2  0  0  0
M  END
>  <CHROM.0>
-175.99644771,-73.31430341,-165.37671788,-64.56722564,-29.73589282,-60.67632282
-37.07514597,-165.75173296

>  <CHROM.1>
78.11383481,136.48063238,-91.58437363,-98.71545729,169.41372842,-4.19643957
-19.87382352,19.12174511,-14.40593049,-1.02562826,0.84669868,0.18705653

>  <Name>
F5578-1758

>  <RI>
2.21822e+07

>  <Rbt.Current_Directory>
/home/adria/Escritorio/rDock_CMTR_LC/2pxcA_model/inputs_sah

>  <Rbt.Executable>
rbdock ($Id: //depot/dev/client3/rdock/2013.1/src/exe/rbdock.cxx#4 $)

>  <Rbt.Library>
libRbt.so (2013.1, Build901 2013/11/27)

>  <Rbt.Parameter_File>
/home/adria/Escritorio/rDock_2013.1_src/data/scripts/dock.prm

>  <Rbt.Receptor>
sah_rdock.prm

>  <SCORE>
-63.834

>  <SCORE.INTER>
-17.2828

>  <SCORE.INTER.CONST>
1

>  <SCORE.INTER.POLAR>
-0.809095

>  <SCORE.INTER.REPUL>
0

>  <SCORE.INTER.ROT>
6

>  <SCORE.INTER.VDW>
-25.9318

>  <SCORE.INTER.norm>
-0.540086

>  <SCORE.INTRA>
-39.6957

>  <SCORE.INTRA.DIHEDRAL>
-78.1007

>  <SCORE.INTRA.DIHEDRAL.0>
98.0328

>  <SCORE.INTRA.POLAR>
0

>  <SCORE.INTRA.POLAR.0>
0

>  <SCORE.INTRA.REPUL>
0

>  <SCORE.INTRA.REPUL.0>
0

>  <SCORE.INTRA.VDW>
-0.645322

>  <SCORE.INTRA.VDW.0>
1.05034

>  <SCORE.INTRA.norm>
-1.24049

>  <SCORE.RESTR>
0

>  <SCORE.RESTR.CAVITY>
0

>  <SCORE.RESTR.norm>
0

>  <SCORE.SYSTEM>
-6.85551

>  <SCORE.SYSTEM.CONST>
0

>  <SCORE.SYSTEM.DIHEDRAL>
6.61346

>  <SCORE.SYSTEM.POLAR>
-3.9587

>  <SCORE.SYSTEM.REPUL>
0.039092

>  <SCORE.SYSTEM.VDW>
3.10187

>  <SCORE.SYSTEM.norm>
-0.214235

>  <SCORE.heavy>
32

>  <SCORE.norm>
-1.99481

$$$$
F5578-1758
  rDOCK(R)          3D
libRbt.so/2013.1/901 2013/11/27
 32 36  0  0  0  0  0  0  0  0999 V2000
  -24.0192   23.4600   -8.6529 C   0  0  0  0  0  0
  -23.7962   24.3587   -9.8534 C   0  0  0  0  0  0
  -22.9375   23.7445  -10.9237 C   0  0  0  0  0  0
  -23.3974   22.8404  -11.8887 C   0  0  0  0  0  0
  -22.5197   22.2952  -12.8373 C   0  0  0  0  0  0
  -21.1549   22.6209  -12.8157 C   0  0  0  0  0  0
  -20.7278   23.5394  -11.8596 C   0  0  0  0  0  0
  -21.6037   24.1234  -10.9568 C   0  0  0  0  0  0
  -20.2674   21.9592  -13.7303 N   0  0  0  0  0  0
  -19.4073   22.7251  -14.4402 N   0  0  0  0  0  0
  -18.9548   21.9312  -15.3978 C   0  0  0  0  0  0
  -19.4767   20.6020  -15.3690 C   0  0  0  0  0  0
  -19.0639   19.7030  -16.5352 C   0  0  0  0  0  0
  -19.2392   20.0920  -17.6705 O   0  0  0  0  0  0
  -18.5604   18.4015  -16.3457 N   0  0  0  0  0  0
  -19.4750   17.3766  -16.0823 C   0  0  0  0  0  0
  -19.0526   16.1595  -15.3292 C   0  0  0  0  0  0
  -17.7000   15.7396  -15.7314 C   0  0  0  0  0  0
  -16.8835   16.5639  -16.4115 C   0  0  0  0  0  0
  -17.2358   17.9895  -16.8243 C   0  0  0  0  0  0
  -17.4198   14.3698  -15.3052 C   0  0  0  0  0  0
  -18.4556   13.6029  -14.7639 C   0  0  0  0  0  0
  -18.2345   12.2701  -14.4258 C   0  0  0  0  0  0
  -16.9861   11.6928  -14.6546 C   0  0  0  0  0  0
  -15.9733   12.4318  -15.2663 C   0  0  0  0  0  0
  -16.1924   13.7673  -15.6035 C   0  0  0  0  0  0
  -20.1893   20.6149  -14.1303 C   0  0  0  0  0  0
  -20.7684   19.6094  -13.3220 N   0  0  0  0  0  0
  -21.3878   19.8152  -12.0904 C   0  0  0  0  0  0
  -21.6671   18.6002  -11.5002 C   0  0  0  0  0  0
  -21.1841   17.6071  -12.3676 C   0  0  0  0  0  0
  -20.8934   18.2435  -13.5601 C   0  0  0  0  0  0
  1  2  1  0  0  0
  2  3  1  0  0  0
  3  4  2  0  0  0
  3  8  1  0  0  0
  4  5  1  0  0  0
  5  6  2  0  0  0
  6  7  1  0  0  0
  6  9  1  0  0  0
  7  8  2  0  0  0
  9 10  1  0  0  0
  9 27  1  0  0  0
 10 11  2  0  0  0
 11 12  1  0  0  0
 12 13  1  0  0  0
 12 27  2  0  0  0
 13 14  2  0  0  0
 13 15  1  0  0  0
 15 16  1  0  0  0
 15 20  1  0  0  0
 16 17  1  0  0  0
 17 18  1  0  0  0
 18 19  2  0  0  0
 18 21  1  0  0  0
 19 20  1  0  0  0
 21 22  2  0  0  0
 21 26  1  0  0  0
 22 23  1  0  0  0
 23 24  2  0  0  0
 24 25  1  0  0  0
 25 26  2  0  0  0
 27 28  1  0  0  0
 28 29  1  0  0  0
 28 32  1  0  0  0
 29 30  2  0  0  0
 30 31  1  0  0  0
 31 32  2  0  0  0
M  END
>  <CHROM.0>
-58.88440289,67.99124888,111.98855428,64.96161075,168.65201245,-175.76211188
81.88530887,-165.44910507

>  <CHROM.1>
81.19950190,131.79293894,-52.89761950,79.07368065,8.09617420,-2.88774677
-19.85588053,19.06009231,-13.96122220,2.47468210,0.96136796,-0.37171611

>  <Name>
F5578-1758

>  <RI>
2.21822e+07

>  <Rbt.Current_Directory>
/home/adria/Escritorio/rDock_CMTR_LC/2pxcA_model/inputs_sah

>  <Rbt.Executable>
rbdock ($Id: //depot/dev/client3/rdock/2013.1/src/exe/rbdock.cxx#4 $)

>  <Rbt.Library>
libRbt.so (2013.1, Build901 2013/11/27)

>  <Rbt.Parameter_File>
/home/adria/Escritorio/rDock_2013.1_src/data/scripts/dock.prm

>  <Rbt.Receptor>
sah_rdock.prm

>  <SCORE>
-56.5686

>  <SCORE.INTER>
-13.361

>  <SCORE.INTER.CONST>
1

>  <SCORE.INTER.POLAR>
0

>  <SCORE.INTER.REPUL>
0.0316295

>  <SCORE.INTER.ROT>
6

>  <SCORE.INTER.VDW>
-24.9192

>  <SCORE.INTER.norm>
-0.417532

>  <SCORE.INTRA>
-41.3059

>  <SCORE.INTRA.DIHEDRAL>
-83.0616

>  <SCORE.INTRA.DIHEDRAL.0>
98.0328

>  <SCORE.INTRA.POLAR>
0

>  <SCORE.INTRA.POLAR.0>
0

>  <SCORE.INTRA.REPUL>
0

>  <SCORE.INTRA.REPUL.0>
0

>  <SCORE.INTRA.VDW>
0.22495

>  <SCORE.INTRA.VDW.0>
1.05034

>  <SCORE.INTRA.norm>
-1.29081

>  <SCORE.RESTR>
0.0268166

>  <SCORE.RESTR.CAVITY>
0.0268166

>  <SCORE.RESTR.norm>
0.000838018

>  <SCORE.SYSTEM>
-1.92853

>  <SCORE.SYSTEM.CONST>
0

>  <SCORE.SYSTEM.DIHEDRAL>
5.90385

>  <SCORE.SYSTEM.POLAR>
-4.14419

>  <SCORE.SYSTEM.VDW>
9.20981

>  <SCORE.SYSTEM.norm>
-0.0602665

>  <SCORE.heavy>
32

>  <SCORE.norm>
-1.76777

$$$$
F5578-1758
  rDOCK(R)          3D
libRbt.so/2013.1/901 2013/11/27
 32 36  0  0  0  0  0  0  0  0999 V2000
  -24.0810   23.8601   -8.9299 C   0  0  0  0  0  0
  -24.4487   23.7004  -10.3922 C   0  0  0  0  0  0
  -23.3594   23.0937  -11.2320 C   0  0  0  0  0  0
  -22.4113   22.1775  -10.7611 C   0  0  0  0  0  0
  -21.4113   21.6798  -11.6095 C   0  0  0  0  0  0
  -21.3222   22.1174  -12.9399 C   0  0  0  0  0  0
  -22.2908   23.0120  -13.3889 C   0  0  0  0  0  0
  -23.3143   23.4620  -12.5684 C   0  0  0  0  0  0
  -20.2207   21.6720  -13.7463 N   0  0  0  0  0  0
  -19.3913   22.6117  -14.2555 N   0  0  0  0  0  0
  -18.6888   21.9798  -15.1825 C   0  0  0  0  0  0
  -19.0027   20.5943  -15.3298 C   0  0  0  0  0  0
  -18.2926   19.8725  -16.4758 C   0  0  0  0  0  0
  -17.8537   20.5231  -17.4005 O   0  0  0  0  0  0
  -18.1976   18.4690  -16.5425 N   0  0  0  0  0  0
  -17.1683   17.8468  -15.8285 C   0  0  0  0  0  0
  -16.6381   16.5216  -16.2637 C   0  0  0  0  0  0
  -17.7293   15.6495  -16.7286 C   0  0  0  0  0  0
  -18.9437   16.1448  -17.0266 C   0  0  0  0  0  0
  -19.3263   17.6187  -16.9382 C   0  0  0  0  0  0
  -17.3020   14.2534  -16.7967 C   0  0  0  0  0  0
  -16.0834   13.8884  -16.2171 C   0  0  0  0  0  0
  -15.6922   12.5519  -16.1971 C   0  0  0  0  0  0
  -16.5308   11.5740  -16.7306 C   0  0  0  0  0  0
  -17.7816   11.9245  -17.2394 C   0  0  0  0  0  0
  -18.1740   13.2627  -17.2621 C   0  0  0  0  0  0
  -19.8830   20.3941  -14.2219 C   0  0  0  0  0  0
  -20.4159   19.2480  -13.5879 N   0  0  0  0  0  0
  -20.1597   17.9269  -13.9511 C   0  0  0  0  0  0
  -20.9864   17.0798  -13.2430 C   0  0  0  0  0  0
  -21.8034   17.8897  -12.4376 C   0  0  0  0  0  0
  -21.2517   19.1568  -12.4783 C   0  0  0  0  0  0
  1  2  1  0  0  0
  2  3  1  0  0  0
  3  4  2  0  0  0
  3  8  1  0  0  0
  4  5  1  0  0  0
  5  6  2  0  0  0
  6  7  1  0  0  0
  6  9  1  0  0  0
  7  8  2  0  0  0
  9 10  1  0  0  0
  9 27  1  0  0  0
 10 11  2  0  0  0
 11 12  1  0  0  0
 12 13  1  0  0  0
 12 27  2  0  0  0
 13 14  2  0  0  0
 13 15  1  0  0  0
 15 16  1  0  0  0
 15 20  1  0  0  0
 16 17  1  0  0  0
 17 18  1  0  0  0
 18 19  2  0  0  0
 18 21  1  0  0  0
 19 20  1  0  0  0
 21 22  2  0  0  0
 21 26  1  0  0  0
 22 23  1  0  0  0
 23 24  2  0  0  0
 24 25  1  0  0  0
 25 26  2  0  0  0
 27 28  1  0  0  0
 28 29  1  0  0  0
 28 32  1  0  0  0
 29 30  2  0  0  0
 30 31  1  0  0  0
 31 32  2  0  0  0
M  END
>  <CHROM.0>
-178.45645217,-171.25986489,75.35474769,150.00189341,-31.08223812,-176.18023292
-36.90272152,-159.68202982

>  <CHROM.1>
30.38406106,-119.96438230,-21.69099697,-83.62863918,11.29574812,-179.66925006
-19.69851669,18.84776815,-14.48930149,2.36387659,0.84185686,-0.11130764

>  <Name>
F5578-1758

>  <RI>
2.21822e+07

>  <Rbt.Current_Directory>
/home/adria/Escritorio/rDock_CMTR_LC/2pxcA_model/inputs_sah

>  <Rbt.Executable>
rbdock ($Id: //depot/dev/client3/rdock/2013.1/src/exe/rbdock.cxx#4 $)

>  <Rbt.Library>
libRbt.so (2013.1, Build901 2013/11/27)

>  <Rbt.Parameter_File>
/home/adria/Escritorio/rDock_2013.1_src/data/scripts/dock.prm

>  <Rbt.Receptor>
sah_rdock.prm

>  <SCORE>
-55.0632

>  <SCORE.INTER>
-11.2966

>  <SCORE.INTER.CONST>
1

>  <SCORE.INTER.POLAR>
-0.848528

>  <SCORE.INTER.REPUL>
0

>  <SCORE.INTER.ROT>
6

>  <SCORE.INTER.VDW>
-19.8116

>  <SCORE.INTER.norm>
-0.353019

>  <SCORE.INTRA>
-40.9537

>  <SCORE.INTRA.DIHEDRAL>
-85.5321

>  <SCORE.INTRA.DIHEDRAL.0>
98.0328

>  <SCORE.INTRA.POLAR>
0

>  <SCORE.INTRA.POLAR.0>
0

>  <SCORE.INTRA.REPUL>
0

>  <SCORE.INTRA.REPUL.0>
0

>  <SCORE.INTRA.VDW>
1.81235

>  <SCORE.INTRA.VDW.0>
1.05034

>  <SCORE.INTRA.norm>
-1.2798

>  <SCORE.RESTR>
0

>  <SCORE.RESTR.CAVITY>
0

>  <SCORE.RESTR.norm>
0

>  <SCORE.SYSTEM>
-2.81289

>  <SCORE.SYSTEM.CONST>
0

>  <SCORE.SYSTEM.DIHEDRAL>
9.70749

>  <SCORE.SYSTEM.POLAR>
-3.73105

>  <SCORE.SYSTEM.VDW>
5.01893

>  <SCORE.SYSTEM.norm>
-0.0879027

>  <SCORE.heavy>
32

>  <SCORE.norm>
-1.72072

$$$$
F5578-1758
  rDOCK(R)          3D
libRbt.so/2013.1/901 2013/11/27
 32 36  0  0  0  0  0  0  0  0999 V2000
  -16.5217   12.7859  -19.8963 C   0  0  0  0  0  0
  -15.5170   13.5970  -19.1017 C   0  0  0  0  0  0
  -16.1321   14.7010  -18.2875 C   0  0  0  0  0  0
  -16.5994   15.9107  -18.8152 C   0  0  0  0  0  0
  -17.1372   16.8989  -17.9775 C   0  0  0  0  0  0
  -17.1864   16.7064  -16.5884 C   0  0  0  0  0  0
  -16.7356   15.4855  -16.0918 C   0  0  0  0  0  0
  -16.2560   14.4845  -16.9232 C   0  0  0  0  0  0
  -17.6401   17.7824  -15.7527 N   0  0  0  0  0  0
  -18.6390   17.5236  -14.8778 N   0  0  0  0  0  0
  -19.0633   18.7137  -14.4834 C   0  0  0  0  0  0
  -18.3669   19.8186  -15.0613 C   0  0  0  0  0  0
  -18.9181   21.2027  -14.7161 C   0  0  0  0  0  0
  -18.4649   22.1756  -15.2810 O   0  0  0  0  0  0
  -19.8783   21.4042  -13.7059 N   0  0  0  0  0  0
  -19.6600   20.7996  -12.4637 C   0  0  0  0  0  0
  -20.8081   20.4697  -11.5695 C   0  0  0  0  0  0
  -21.8226   21.5359  -11.6069 C   0  0  0  0  0  0
  -21.8275   22.4647  -12.5795 C   0  0  0  0  0  0
  -20.8298   22.5212  -13.7318 C   0  0  0  0  0  0
  -22.7503   21.4268  -10.4826 C   0  0  0  0  0  0
  -23.7938   22.3505  -10.3727 C   0  0  0  0  0  0
  -24.7380   22.2196   -9.3574 C   0  0  0  0  0  0
  -24.6579   21.1493   -8.4672 C   0  0  0  0  0  0
  -23.6642   20.1824   -8.6209 C   0  0  0  0  0  0
  -22.7165   20.3131   -9.6358 C   0  0  0  0  0  0
  -17.3054   19.1466  -15.7425 C   0  0  0  0  0  0
  -16.1002   19.5761  -16.3448 N   0  0  0  0  0  0
  -15.1768   18.7539  -16.9882 C   0  0  0  0  0  0
  -14.0396   19.4748  -17.2876 C   0  0  0  0  0  0
  -14.2407   20.7737  -16.7931 C   0  0  0  0  0  0
  -15.5830   20.8621  -16.4736 C   0  0  0  0  0  0
  1  2  1  0  0  0
  2  3  1  0  0  0
  3  4  2  0  0  0
  3  8  1  0  0  0
  4  5  1  0  0  0
  5  6  2  0  0  0
  6  7  1  0  0  0
  6  9  1  0  0  0
  7  8  2  0  0  0
  9 10  1  0  0  0
  9 27  1  0  0  0
 10 11  2  0  0  0
 11 12  1  0  0  0
 12 13  1  0  0  0
 12 27  2  0  0  0
 13 14  2  0  0  0
 13 15  1  0  0  0
 15 16  1  0  0  0
 15 20  1  0  0  0
 16 17  1  0  0  0
 17 18  1  0  0  0
 18 19  2  0  0  0
 18 21  1  0  0  0
 19 20  1  0  0  0
 21 22  2  0  0  0
 21 26  1  0  0  0
 22 23  1  0  0  0
 23 24  2  0  0  0
 24 25  1  0  0  0
 25 26  2  0  0  0
 27 28  1  0  0  0
 28 29  1  0  0  0
 28 32  1  0  0  0
 29 30  2  0  0  0
 30 31  1  0  0  0
 31 32  2  0  0  0
M  END
>  <CHROM.0>
-179.49894259,64.74533623,-167.03896142,-59.93216082,-30.97761667,-57.22216465
83.40265081,-161.47988279

>  <CHROM.1>
-75.67322758,127.06553979,-172.36866910,47.96957721,-179.05675635,0.79171402
-18.81770226,19.15361766,-14.59648278,0.67028201,-0.69833823,-2.87987330

>  <Name>
F5578-1758

>  <RI>
2.21822e+07

>  <Rbt.Current_Directory>
/home/adria/Escritorio/rDock_CMTR_LC/2pxcA_model/inputs_sah

>  <Rbt.Executable>
rbdock ($Id: //depot/dev/client3/rdock/2013.1/src/exe/rbdock.cxx#4 $)

>  <Rbt.Library>
libRbt.so (2013.1, Build901 2013/11/27)

>  <Rbt.Parameter_File>
/home/adria/Escritorio/rDock_2013.1_src/data/scripts/dock.prm

>  <Rbt.Receptor>
sah_rdock.prm

>  <SCORE>
-65.9341

>  <SCORE.INTER>
-16.0067

>  <SCORE.INTER.CONST>
1

>  <SCORE.INTER.POLAR>
0

>  <SCORE.INTER.REPUL>
0

>  <SCORE.INTER.ROT>
6

>  <SCORE.INTER.VDW>
-27.4067

>  <SCORE.INTER.norm>
-0.500208

>  <SCORE.INTRA>
-43.5319

>  <SCORE.INTRA.DIHEDRAL>
-88.3877

>  <SCORE.INTRA.DIHEDRAL.0>
98.0328

>  <SCORE.INTRA.POLAR>
0

>  <SCORE.INTRA.POLAR.0>
0

>  <SCORE.INTRA.REPUL>
0

>  <SCORE.INTRA.REPUL.0>
0

>  <SCORE.INTRA.VDW>
0.661963

>  <SCORE.INTRA.VDW.0>
1.05034

>  <SCORE.INTRA.norm>
-1.36037

>  <SCORE.RESTR>
0

>  <SCORE.RESTR.CAVITY>
0

>  <SCORE.RESTR.norm>
0

>  <SCORE.SYSTEM>
-6.3956

>  <SCORE.SYSTEM.CONST>
0

>  <SCORE.SYSTEM.DIHEDRAL>
5.62049

>  <SCORE.SYSTEM.POLAR>
-3.61288

>  <SCORE.SYSTEM.VDW>
3.07795

>  <SCORE.SYSTEM.norm>
-0.199862

>  <SCORE.heavy>
32

>  <SCORE.norm>
-2.06044

$$$$
F5578-1758
  rDOCK(R)          3D
libRbt.so/2013.1/901 2013/11/27
 32 36  0  0  0  0  0  0  0  0999 V2000
  -24.2163   23.8111   -9.1246 C   0  0  0  0  0  0
  -24.0037   24.4347  -10.4901 C   0  0  0  0  0  0
  -22.9368   23.7621  -11.3082 C   0  0  0  0  0  0
  -21.6355   24.2518  -11.4723 C   0  0  0  0  0  0
  -20.7088   23.5715  -12.2760 C   0  0  0  0  0  0
  -21.0797   22.4029  -12.9586 C   0  0  0  0  0  0
  -22.3731   21.9253  -12.7605 C   0  0  0  0  0  0
  -23.2736   22.5646  -11.9217 C   0  0  0  0  0  0
  -20.1403   21.7955  -13.8590 N   0  0  0  0  0  0
  -19.3335   22.6125  -14.5745 N   0  0  0  0  0  0
  -18.8182   21.8410  -15.5185 C   0  0  0  0  0  0
  -19.2421   20.4778  -15.4744 C   0  0  0  0  0  0
  -18.7572   19.5958  -16.6257 C   0  0  0  0  0  0
  -18.8314   20.0150  -17.7613 O   0  0  0  0  0  0
  -18.3007   18.2782  -16.4289 N   0  0  0  0  0  0
  -19.2538   17.2564  -16.3666 C   0  0  0  0  0  0
  -18.9653   15.9957  -15.6223 C   0  0  0  0  0  0
  -17.5699   15.5745  -15.8292 C   0  0  0  0  0  0
  -16.6497   16.4188  -16.3283 C   0  0  0  0  0  0
  -16.9207   17.8692  -16.7151 C   0  0  0  0  0  0
  -17.3717   14.1803  -15.4376 C   0  0  0  0  0  0
  -16.1138   13.5977  -15.6181 C   0  0  0  0  0  0
  -15.8770   12.2976  -15.1787 C   0  0  0  0  0  0
  -16.8878   11.5871  -14.5324 C   0  0  0  0  0  0
  -18.1194   12.1922  -14.2807 C   0  0  0  0  0  0
  -18.3589   13.4934  -14.7220 C   0  0  0  0  0  0
  -19.9621   20.4552  -14.2400 C   0  0  0  0  0  0
  -20.4718   19.4211  -13.4213 N   0  0  0  0  0  0
  -20.4208   18.0583  -13.7094 C   0  0  0  0  0  0
  -21.1739   17.3586  -12.7898 C   0  0  0  0  0  0
  -21.7368   18.3071  -11.9206 C   0  0  0  0  0  0
  -21.0824   19.4987  -12.1726 C   0  0  0  0  0  0
  1  2  1  0  0  0
  2  3  1  0  0  0
  3  4  2  0  0  0
  3  8  1  0  0  0
  4  5  1  0  0  0
  5  6  2  0  0  0
  6  7  1  0  0  0
  6  9  1  0  0  0
  7  8  2  0  0  0
  9 10  1  0  0  0
  9 27  1  0  0  0
 10 11  2  0  0  0
 11 12  1  0  0  0
 12 13  1  0  0  0
 12 27  2  0  0  0
 13 14  2  0  0  0
 13 15  1  0  0  0
 15 16  1  0  0  0
 15 20  1  0  0  0
 16 17  1  0  0  0
 17 18  1  0  0  0
 18 19  2  0  0  0
 18 21  1  0  0  0
 19 20  1  0  0  0
 21 22  2  0  0  0
 21 26  1  0  0  0
 22 23  1  0  0  0
 23 24  2  0  0  0
 24 25  1  0  0  0
 25 26  2  0  0  0
 27 28  1  0  0  0
 28 29  1  0  0  0
 28 32  1  0  0  0
 29 30  2  0  0  0
 30 31  1  0  0  0
 31 32  2  0  0  0
M  END
>  <CHROM.0>
-56.45245980,-166.77784823,-47.22677085,66.35512468,168.09310156,60.56750966
84.21405866,-161.20808132

>  <CHROM.1>
-101.47790185,-35.62348839,-45.58193677,83.82954139,177.47521026,176.83263622
-19.72303632,18.93964433,-14.11295771,2.41173163,0.90706749,-0.32461389

>  <Name>
F5578-1758

>  <RI>
2.21822e+07

>  <Rbt.Current_Directory>
/home/adria/Escritorio/rDock_CMTR_LC/2pxcA_model/inputs_sah

>  <Rbt.Executable>
rbdock ($Id: //depot/dev/client3/rdock/2013.1/src/exe/rbdock.cxx#4 $)

>  <Rbt.Library>
libRbt.so (2013.1, Build901 2013/11/27)

>  <Rbt.Parameter_File>
/home/adria/Escritorio/rDock_2013.1_src/data/scripts/dock.prm

>  <Rbt.Receptor>
sah_rdock.prm

>  <SCORE>
-59.2166

>  <SCORE.INTER>
-14.4649

>  <SCORE.INTER.CONST>
1

>  <SCORE.INTER.POLAR>
0

>  <SCORE.INTER.REPUL>
0

>  <SCORE.INTER.ROT>
6

>  <SCORE.INTER.VDW>
-25.8649

>  <SCORE.INTER.norm>
-0.452028

>  <SCORE.INTRA>
-43.5575

>  <SCORE.INTRA.DIHEDRAL>
-87.0201

>  <SCORE.INTRA.DIHEDRAL.0>
98.0328

>  <SCORE.INTRA.POLAR>
0

>  <SCORE.INTRA.POLAR.0>
0

>  <SCORE.INTRA.REPUL>
0

>  <SCORE.INTRA.REPUL.0>
0

>  <SCORE.INTRA.VDW>
-0.0474559

>  <SCORE.INTRA.VDW.0>
1.05034

>  <SCORE.INTRA.norm>
-1.36117

>  <SCORE.RESTR>
0.0895835

>  <SCORE.RESTR.CAVITY>
0.0895835

>  <SCORE.RESTR.norm>
0.00279949

>  <SCORE.SYSTEM>
-1.28382

>  <SCORE.SYSTEM.CONST>
0

>  <SCORE.SYSTEM.DIHEDRAL>
3.91538

>  <SCORE.SYSTEM.POLAR>
-3.60556

>  <SCORE.SYSTEM.VDW>
9.01738

>  <SCORE.SYSTEM.norm>
-0.0401194

>  <SCORE.heavy>
32

>  <SCORE.norm>
-1.85052

$$$$
F5578-1758
  rDOCK(R)          3D
libRbt.so/2013.1/901 2013/11/27
 32 36  0  0  0  0  0  0  0  0999 V2000
  -25.9094   23.9643  -11.8865 C   0  0  0  0  0  0
  -24.9856   23.1401  -11.0112 C   0  0  0  0  0  0
  -23.7034   22.7391  -11.6859 C   0  0  0  0  0  0
  -22.5064   23.4612  -11.6087 C   0  0  0  0  0  0
  -21.3611   23.0270  -12.2922 C   0  0  0  0  0  0
  -21.4031   21.8766  -13.0947 C   0  0  0  0  0  0
  -22.5997   21.1648  -13.1365 C   0  0  0  0  0  0
  -23.7171   21.5603  -12.4166 C   0  0  0  0  0  0
  -20.2449   21.5247  -13.8671 N   0  0  0  0  0  0
  -19.4626   22.5292  -14.3246 N   0  0  0  0  0  0
  -18.6852   21.9673  -15.2366 C   0  0  0  0  0  0
  -18.8990   20.5676  -15.4244 C   0  0  0  0  0  0
  -18.0996   19.9216  -16.5568 C   0  0  0  0  0  0
  -17.6876   20.6185  -17.4599 O   0  0  0  0  0  0
  -17.8899   18.5314  -16.6373 N   0  0  0  0  0  0
  -18.8706   17.7555  -17.2640 C   0  0  0  0  0  0
  -19.0366   16.3151  -16.9115 C   0  0  0  0  0  0
  -17.7277   15.6727  -16.7083 C   0  0  0  0  0  0
  -16.6102   16.3997  -16.5314 C   0  0  0  0  0  0
  -16.5606   17.9240  -16.5051 C   0  0  0  0  0  0
  -17.8399   14.2157  -16.7395 C   0  0  0  0  0  0
  -18.8594   13.6302  -17.4957 C   0  0  0  0  0  0
  -18.9382   12.2443  -17.6072 C   0  0  0  0  0  0
  -17.9817   11.4414  -16.9869 C   0  0  0  0  0  0
  -16.9185   12.0237  -16.2965 C   0  0  0  0  0  0
  -16.8393   13.4114  -16.1821 C   0  0  0  0  0  0
  -19.8041   20.2835  -14.3556 C   0  0  0  0  0  0
  -20.2815   19.0900  -13.7664 N   0  0  0  0  0  0
  -20.0054   17.7984  -14.2119 C   0  0  0  0  0  0
  -20.7811   16.8910  -13.5209 C   0  0  0  0  0  0
  -21.5864   17.6324  -12.6413 C   0  0  0  0  0  0
  -21.0701   18.9150  -12.6326 C   0  0  0  0  0  0
  1  2  1  0  0  0
  2  3  1  0  0  0
  3  4  2  0  0  0
  3  8  1  0  0  0
  4  5  1  0  0  0
  5  6  2  0  0  0
  6  7  1  0  0  0
  6  9  1  0  0  0
  7  8  2  0  0  0
  9 10  1  0  0  0
  9 27  1  0  0  0
 10 11  2  0  0  0
 11 12  1  0  0  0
 12 13  1  0  0  0
 12 27  2  0  0  0
 13 14  2  0  0  0
 13 15  1  0  0  0
 15 16  1  0  0  0
 15 20  1  0  0  0
 16 17  1  0  0  0
 17 18  1  0  0  0
 18 19  2  0  0  0
 18 21  1  0  0  0
 19 20  1  0  0  0
 21 22  2  0  0  0
 21 26  1  0  0  0
 22 23  1  0  0  0
 23 24  2  0  0  0
 24 25  1  0  0  0
 25 26  2  0  0  0
 27 28  1  0  0  0
 28 29  1  0  0  0
 28 32  1  0  0  0
 29 30  2  0  0  0
 30 31  1  0  0  0
 31 32  2  0  0  0
M  END
>  <CHROM.0>
-59.52972012,66.83745690,-6.61659127,65.23992006,-30.79430614,-55.44796098
80.95042231,-161.77922049

>  <CHROM.1>
93.23921127,-31.69734140,-22.70495359,85.98183604,28.36582874,175.02461725
-19.91507187,18.74007921,-14.78848193,2.20695772,0.63688355,0.07907085

>  <Name>
F5578-1758

>  <RI>
2.21822e+07

>  <Rbt.Current_Directory>
/home/adria/Escritorio/rDock_CMTR_LC/2pxcA_model/inputs_sah

>  <Rbt.Executable>
rbdock ($Id: //depot/dev/client3/rdock/2013.1/src/exe/rbdock.cxx#4 $)

>  <Rbt.Library>
libRbt.so (2013.1, Build901 2013/11/27)

>  <Rbt.Parameter_File>
/home/adria/Escritorio/rDock_2013.1_src/data/scripts/dock.prm

>  <Rbt.Receptor>
sah_rdock.prm

>  <SCORE>
-62.6761

>  <SCORE.INTER>
-10.4832

>  <SCORE.INTER.CONST>
1

>  <SCORE.INTER.POLAR>
-0.848528

>  <SCORE.INTER.REPUL>
0

>  <SCORE.INTER.ROT>
6

>  <SCORE.INTER.VDW>
-18.9982

>  <SCORE.INTER.norm>
-0.327601

>  <SCORE.INTRA>
-45.4008

>  <SCORE.INTRA.DIHEDRAL>
-89.1769

>  <SCORE.INTRA.DIHEDRAL.0>
98.0328

>  <SCORE.INTRA.POLAR>
0

>  <SCORE.INTRA.POLAR.0>
0

>  <SCORE.INTRA.REPUL>
0

>  <SCORE.INTRA.REPUL.0>
0

>  <SCORE.INTRA.VDW>
-0.812347

>  <SCORE.INTRA.VDW.0>
1.05034

>  <SCORE.INTRA.norm>
-1.41877

>  <SCORE.RESTR>
0

>  <SCORE.RESTR.CAVITY>
0

>  <SCORE.RESTR.norm>
0

>  <SCORE.SYSTEM>
-6.79208

>  <SCORE.SYSTEM.CONST>
0

>  <SCORE.SYSTEM.DIHEDRAL>
8.80653

>  <SCORE.SYSTEM.POLAR>
-4.21307

>  <SCORE.SYSTEM.VDW>
3.12909

>  <SCORE.SYSTEM.norm>
-0.212252

>  <SCORE.heavy>
32

>  <SCORE.norm>
-1.95863

$$$$
F5578-1758
  rDOCK(R)          3D
libRbt.so/2013.1/901 2013/11/27
 32 36  0  0  0  0  0  0  0  0999 V2000
  -26.3269   19.3993   -9.5407 C   0  0  0  0  0  0
  -25.4327   20.6109   -9.3643 C   0  0  0  0  0  0
  -24.1877   20.5776  -10.2063 C   0  0  0  0  0  0
  -24.1081   21.0434  -11.5242 C   0  0  0  0  0  0
  -22.9096   20.9504  -12.2470 C   0  0  0  0  0  0
  -21.7749   20.3571  -11.6726 C   0  0  0  0  0  0
  -21.8747   19.9222  -10.3531 C   0  0  0  0  0  0
  -23.0416   20.0645   -9.6173 C   0  0  0  0  0  0
  -20.6001   20.1786  -12.4787 N   0  0  0  0  0  0
  -19.4196   20.6089  -11.9772 N   0  0  0  0  0  0
  -18.5932   20.6181  -13.0111 C   0  0  0  0  0  0
  -19.1722   20.1864  -14.2433 C   0  0  0  0  0  0
  -18.2732   20.3043  -15.4748 C   0  0  0  0  0  0
  -17.9955   21.4061  -15.8989 O   0  0  0  0  0  0
  -17.8178   19.1795  -16.1894 N   0  0  0  0  0  0
  -17.5357   18.0146  -15.4684 C   0  0  0  0  0  0
  -16.5537   17.0198  -15.9904 C   0  0  0  0  0  0
  -16.6888   16.8679  -17.4485 C   0  0  0  0  0  0
  -17.3618   17.7678  -18.1874 C   0  0  0  0  0  0
  -18.0328   19.0200  -17.6323 C   0  0  0  0  0  0
  -16.0235   15.6551  -17.9207 C   0  0  0  0  0  0
  -15.2816   15.7058  -19.1044 C   0  0  0  0  0  0
  -14.5723   14.5863  -19.5324 C   0  0  0  0  0  0
  -14.5796   13.4230  -18.7637 C   0  0  0  0  0  0
  -15.2546   13.3932  -17.5433 C   0  0  0  0  0  0
  -15.9673   14.5127  -17.1143 C   0  0  0  0  0  0
  -20.4472   19.7193  -13.7974 C   0  0  0  0  0  0
  -21.4741   18.9525  -14.3950 N   0  0  0  0  0  0
  -22.6567   18.5555  -13.7732 C   0  0  0  0  0  0
  -23.3349   17.6690  -14.5835 C   0  0  0  0  0  0
  -22.5447   17.4803  -15.7290 C   0  0  0  0  0  0
  -21.5732   18.4635  -15.6946 C   0  0  0  0  0  0
  1  2  1  0  0  0
  2  3  1  0  0  0
  3  4  2  0  0  0
  3  8  1  0  0  0
  4  5  1  0  0  0
  5  6  2  0  0  0
  6  7  1  0  0  0
  6  9  1  0  0  0
  7  8  2  0  0  0
  9 10  1  0  0  0
  9 27  1  0  0  0
 10 11  2  0  0  0
 11 12  1  0  0  0
 12 13  1  0  0  0
 12 27  2  0  0  0
 13 14  2  0  0  0
 13 15  1  0  0  0
 15 16  1  0  0  0
 15 20  1  0  0  0
 16 17  1  0  0  0
 17 18  1  0  0  0
 18 19  2  0  0  0
 18 21  1  0  0  0
 19 20  1  0  0  0
 21 22  2  0  0  0
 21 26  1  0  0  0
 22 23  1  0  0  0
 23 24  2  0  0  0
 24 25  1  0  0  0
 25 26  2  0  0  0
 27 28  1  0  0  0
 28 29  1  0  0  0
 28 32  1  0  0  0
 29 30  2  0  0  0
 30 31  1  0  0  0
 31 32  2  0  0  0
M  END
>  <CHROM.0>
41.58201016,-72.30760257,-166.05618553,65.24983101,-30.61495385,54.22311880
-156.55016405,-164.50164048

>  <CHROM.1>
86.95320632,129.94538941,-69.46007779,-34.68927615,-138.46617848,-2.00690312
-19.75212398,18.53452139,-14.55846263,2.47671544,0.52225185,0.43422058

>  <Name>
F5578-1758

>  <RI>
2.21822e+07

>  <Rbt.Current_Directory>
/home/adria/Escritorio/rDock_CMTR_LC/2pxcA_model/inputs_sah

>  <Rbt.Executable>
rbdock ($Id: //depot/dev/client3/rdock/2013.1/src/exe/rbdock.cxx#4 $)

>  <Rbt.Library>
libRbt.so (2013.1, Build901 2013/11/27)

>  <Rbt.Parameter_File>
/home/adria/Escritorio/rDock_2013.1_src/data/scripts/dock.prm

>  <Rbt.Receptor>
sah_rdock.prm

>  <SCORE>
-51.5093

>  <SCORE.INTER>
-8.75822

>  <SCORE.INTER.CONST>
1

>  <SCORE.INTER.POLAR>
0

>  <SCORE.INTER.REPUL>
0

>  <SCORE.INTER.ROT>
6

>  <SCORE.INTER.VDW>
-20.1582

>  <SCORE.INTER.norm>
-0.273694

>  <SCORE.INTRA>
-39.5235

>  <SCORE.INTRA.DIHEDRAL>
-75.3107

>  <SCORE.INTRA.DIHEDRAL.0>
98.0328

>  <SCORE.INTRA.POLAR>
0

>  <SCORE.INTRA.POLAR.0>
0

>  <SCORE.INTRA.REPUL>
0

>  <SCORE.INTRA.REPUL.0>
0

>  <SCORE.INTRA.VDW>
-1.86814

>  <SCORE.INTRA.VDW.0>
1.05034

>  <SCORE.INTRA.norm>
-1.23511

>  <SCORE.RESTR>
0

>  <SCORE.RESTR.CAVITY>
0

>  <SCORE.RESTR.norm>
0

>  <SCORE.SYSTEM>
-3.22764

>  <SCORE.SYSTEM.CONST>
0

>  <SCORE.SYSTEM.DIHEDRAL>
7.96713

>  <SCORE.SYSTEM.POLAR>
-3.95918

>  <SCORE.SYSTEM.REPUL>
0.154996

>  <SCORE.SYSTEM.VDW>
5.47503

>  <SCORE.SYSTEM.norm>
-0.100864

>  <SCORE.heavy>
32

>  <SCORE.norm>
-1.60967

$$$$
F5578-1758
  rDOCK(R)          3D
libRbt.so/2013.1/901 2013/11/27
 32 36  0  0  0  0  0  0  0  0999 V2000
  -13.8214   13.7974  -19.2719 C   0  0  0  0  0  0
  -15.2839   13.4081  -19.1816 C   0  0  0  0  0  0
  -16.0564   14.1761  -18.1455 C   0  0  0  0  0  0
  -16.0582   13.8813  -16.7768 C   0  0  0  0  0  0
  -16.8299   14.6363  -15.8812 C   0  0  0  0  0  0
  -17.6420   15.6821  -16.3460 C   0  0  0  0  0  0
  -17.6047   15.9685  -17.7087 C   0  0  0  0  0  0
  -16.7993   15.2605  -18.5880 C   0  0  0  0  0  0
  -18.5021   16.3602  -15.4174 N   0  0  0  0  0  0
  -19.2195   15.6045  -14.5546 N   0  0  0  0  0  0
  -20.1292   16.4268  -14.0565 C   0  0  0  0  0  0
  -20.0584   17.7658  -14.5486 C   0  0  0  0  0  0
  -21.1730   18.7029  -14.0816 C   0  0  0  0  0  0
  -22.3275   18.3506  -14.1992 O   0  0  0  0  0  0
  -20.9168   19.9985  -13.5926 N   0  0  0  0  0  0
  -20.6273   20.1402  -12.2315 C   0  0  0  0  0  0
  -20.9051   21.4265  -11.5280 C   0  0  0  0  0  0
  -20.5745   22.5745  -12.3883 C   0  0  0  0  0  0
  -20.3927   22.4283  -13.7128 C   0  0  0  0  0  0
  -20.5155   21.1075  -14.4659 C   0  0  0  0  0  0
  -20.4749   23.8092  -11.6124 C   0  0  0  0  0  0
  -19.3539   24.0122  -10.8023 C   0  0  0  0  0  0
  -19.1962   25.2142  -10.1168 C   0  0  0  0  0  0
  -20.1438   26.2268  -10.2619 C   0  0  0  0  0  0
  -21.2229   26.0581  -11.1298 C   0  0  0  0  0  0
  -21.3835   24.8541  -11.8153 C   0  0  0  0  0  0
  -18.8420   17.7179  -15.2972 C   0  0  0  0  0  0
  -18.0081   18.7020  -15.8766 N   0  0  0  0  0  0
  -16.8285   18.4559  -16.5773 C   0  0  0  0  0  0
  -16.1821   19.6468  -16.8352 C   0  0  0  0  0  0
  -16.9584   20.6635  -16.2560 C   0  0  0  0  0  0
  -18.1691   20.0840  -15.9242 C   0  0  0  0  0  0
  1  2  1  0  0  0
  2  3  1  0  0  0
  3  4  2  0  0  0
  3  8  1  0  0  0
  4  5  1  0  0  0
  5  6  2  0  0  0
  6  7  1  0  0  0
  6  9  1  0  0  0
  7  8  2  0  0  0
  9 10  1  0  0  0
  9 27  1  0  0  0
 10 11  2  0  0  0
 11 12  1  0  0  0
 12 13  1  0  0  0
 12 27  2  0  0  0
 13 14  2  0  0  0
 13 15  1  0  0  0
 15 16  1  0  0  0
 15 20  1  0  0  0
 16 17  1  0  0  0
 17 18  1  0  0  0
 18 19  2  0  0  0
 18 21  1  0  0  0
 19 20  1  0  0  0
 21 22  2  0  0  0
 21 26  1  0  0  0
 22 23  1  0  0  0
 23 24  2  0  0  0
 24 25  1  0  0  0
 25 26  2  0  0  0
 27 28  1  0  0  0
 28 29  1  0  0  0
 28 32  1  0  0  0
 29 30  2  0  0  0
 30 31  1  0  0  0
 31 32  2  0  0  0
M  END
>  <CHROM.0>
-178.67941933,-167.49995243,-128.53672631,64.60627957,168.62693098,-179.14972082
-156.94824244,-159.28327413

>  <CHROM.1>
-81.10629041,-45.07949071,-50.90560750,-86.66264206,74.20314545,-0.46806159
-18.82042268,19.12286266,-14.68006028,-1.13592028,0.55705819,0.34995805

>  <Name>
F5578-1758

>  <RI>
2.21822e+07

>  <Rbt.Current_Directory>
/home/adria/Escritorio/rDock_CMTR_LC/2pxcA_model/inputs_sah

>  <Rbt.Executable>
rbdock ($Id: //depot/dev/client3/rdock/2013.1/src/exe/rbdock.cxx#4 $)

>  <Rbt.Library>
libRbt.so (2013.1, Build901 2013/11/27)

>  <Rbt.Parameter_File>
/home/adria/Escritorio/rDock_2013.1_src/data/scripts/dock.prm

>  <Rbt.Receptor>
sah_rdock.prm

>  <SCORE>
-54.7792

>  <SCORE.INTER>
-14.2123

>  <SCORE.INTER.CONST>
1

>  <SCORE.INTER.POLAR>
0

>  <SCORE.INTER.REPUL>
0

>  <SCORE.INTER.ROT>
6

>  <SCORE.INTER.VDW>
-25.6123

>  <SCORE.INTER.norm>
-0.444136

>  <SCORE.INTRA>
-39.7823

>  <SCORE.INTRA.DIHEDRAL>
-73.431

>  <SCORE.INTRA.DIHEDRAL.0>
98.0328

>  <SCORE.INTRA.POLAR>
0

>  <SCORE.INTRA.POLAR.0>
0

>  <SCORE.INTRA.REPUL>
0

>  <SCORE.INTRA.REPUL.0>
0

>  <SCORE.INTRA.VDW>
-3.06676

>  <SCORE.INTRA.VDW.0>
1.05034

>  <SCORE.INTRA.norm>
-1.2432

>  <SCORE.RESTR>
0

>  <SCORE.RESTR.CAVITY>
0

>  <SCORE.RESTR.norm>
0

>  <SCORE.SYSTEM>
-0.784547

>  <SCORE.SYSTEM.CONST>
0

>  <SCORE.SYSTEM.DIHEDRAL>
6.66183

>  <SCORE.SYSTEM.POLAR>
-4.1634

>  <SCORE.SYSTEM.VDW>
10.0401

>  <SCORE.SYSTEM.norm>
-0.0245171

>  <SCORE.heavy>
32

>  <SCORE.norm>
-1.71185

$$$$
F5578-1758
  rDOCK(R)          3D
libRbt.so/2013.1/901 2013/11/27
 32 36  0  0  0  0  0  0  0  0999 V2000
  -22.0529   26.2931   -9.1973 C   0  0  0  0  0  0
  -22.0882   26.0767  -10.6975 C   0  0  0  0  0  0
  -21.6517   24.7033  -11.1259 C   0  0  0  0  0  0
  -20.3355   24.2311  -11.0562 C   0  0  0  0  0  0
  -20.0113   22.9414  -11.5024 C   0  0  0  0  0  0
  -20.9962   22.1110  -12.0588 C   0  0  0  0  0  0
  -22.3012   22.5967  -12.0959 C   0  0  0  0  0  0
  -22.6348   23.8495  -11.6034 C   0  0  0  0  0  0
  -20.6077   20.8417  -12.6062 N   0  0  0  0  0  0
  -19.4815   20.7954  -13.3543 N   0  0  0  0  0  0
  -19.5323   19.6273  -13.9747 C   0  0  0  0  0  0
  -20.6800   18.8354  -13.6657 C   0  0  0  0  0  0
  -20.8230   17.5374  -14.4614 C   0  0  0  0  0  0
  -21.9003   16.9812  -14.4940 O   0  0  0  0  0  0
  -19.7304   16.9141  -15.0948 N   0  0  0  0  0  0
  -19.0143   17.6517  -16.0433 C   0  0  0  0  0  0
  -18.2657   16.9600  -17.1331 C   0  0  0  0  0  0
  -17.6139   15.7409  -16.6268 C   0  0  0  0  0  0
  -17.9650   15.1963  -15.4483 C   0  0  0  0  0  0
  -19.0517   15.7430  -14.5281 C   0  0  0  0  0  0
  -16.5875   15.2636  -17.5516 C   0  0  0  0  0  0
  -15.9449   16.1837  -18.3849 C   0  0  0  0  0  0
  -14.9078   15.7676  -19.2160 C   0  0  0  0  0  0
  -14.4915   14.4369  -19.1952 C   0  0  0  0  0  0
  -15.0774   13.5328  -18.3090 C   0  0  0  0  0  0
  -16.1175   13.9474  -17.4776 C   0  0  0  0  0  0
  -21.2608   19.5980  -12.6057 C   0  0  0  0  0  0
  -22.2750   19.3405  -11.6545 N   0  0  0  0  0  0
  -22.9961   18.1533  -11.5386 C   0  0  0  0  0  0
  -24.0245   18.3187  -10.6343 C   0  0  0  0  0  0
  -23.9672   19.6509  -10.1940 C   0  0  0  0  0  0
  -22.7523   20.1492  -10.6268 C   0  0  0  0  0  0
  1  2  1  0  0  0
  2  3  1  0  0  0
  3  4  2  0  0  0
  3  8  1  0  0  0
  4  5  1  0  0  0
  5  6  2  0  0  0
  6  7  1  0  0  0
  6  9  1  0  0  0
  7  8  2  0  0  0
  9 10  1  0  0  0
  9 27  1  0  0  0
 10 11  2  0  0  0
 11 12  1  0  0  0
 12 13  1  0  0  0
 12 27  2  0  0  0
 13 14  2  0  0  0
 13 15  1  0  0  0
 15 16  1  0  0  0
 15 20  1  0  0  0
 16 17  1  0  0  0
 17 18  1  0  0  0
 18 19  2  0  0  0
 18 21  1  0  0  0
 19 20  1  0  0  0
 21 22  2  0  0  0
 21 26  1  0  0  0
 22 23  1  0  0  0
 23 24  2  0  0  0
 24 25  1  0  0  0
 25 26  2  0  0  0
 27 28  1  0  0  0
 28 29  1  0  0  0
 28 32  1  0  0  0
 29 30  2  0  0  0
 30 31  1  0  0  0
 31 32  2  0  0  0
M  END
>  <CHROM.0>
-62.94912827,-78.14465107,107.85129628,-61.20953672,-30.57400165,59.16010514
82.43729905,-163.73950383

>  <CHROM.1>
-70.37806813,-42.49495398,-162.61596548,-58.03153256,27.43532138,-179.68933895
-19.93712937,19.08482687,-13.85995098,-2.20252999,-0.63915478,-2.84996882

>  <Name>
F5578-1758

>  <RI>
2.21822e+07

>  <Rbt.Current_Directory>
/home/adria/Escritorio/rDock_CMTR_LC/2pxcA_model/inputs_sah

>  <Rbt.Executable>
rbdock ($Id: //depot/dev/client3/rdock/2013.1/src/exe/rbdock.cxx#4 $)

>  <Rbt.Library>
libRbt.so (2013.1, Build901 2013/11/27)

>  <Rbt.Parameter_File>
/home/adria/Escritorio/rDock_2013.1_src/data/scripts/dock.prm

>  <Rbt.Receptor>
sah_rdock.prm

>  <SCORE>
-63.6125

>  <SCORE.INTER>
-12.4048

>  <SCORE.INTER.CONST>
1

>  <SCORE.INTER.POLAR>
0

>  <SCORE.INTER.REPUL>
0

>  <SCORE.INTER.ROT>
6

>  <SCORE.INTER.VDW>
-23.8048

>  <SCORE.INTER.norm>
-0.387651

>  <SCORE.INTRA>
-44.1083

>  <SCORE.INTRA.DIHEDRAL>
-87.6972

>  <SCORE.INTRA.DIHEDRAL.0>
98.0328

>  <SCORE.INTRA.POLAR>
0

>  <SCORE.INTRA.POLAR.0>
0

>  <SCORE.INTRA.REPUL>
0

>  <SCORE.INTRA.REPUL.0>
0

>  <SCORE.INTRA.VDW>
-0.259683

>  <SCORE.INTRA.VDW.0>
1.05034

>  <SCORE.INTRA.norm>
-1.37838

>  <SCORE.RESTR>
0

>  <SCORE.RESTR.CAVITY>
0

>  <SCORE.RESTR.norm>
0

>  <SCORE.SYSTEM>
-7.09935

>  <SCORE.SYSTEM.CONST>
0

>  <SCORE.SYSTEM.DIHEDRAL>
9.77969

>  <SCORE.SYSTEM.POLAR>
-4.61177

>  <SCORE.SYSTEM.REPUL>
0.0464002

>  <SCORE.SYSTEM.VDW>
3.45883

>  <SCORE.SYSTEM.norm>
-0.221855

>  <SCORE.heavy>
32

>  <SCORE.norm>
-1.98789

$$$$
F5578-1758
  rDOCK(R)          3D
libRbt.so/2013.1/901 2013/11/27
 32 36  0  0  0  0  0  0  0  0999 V2000
  -26.5841   21.4908   -8.4217 C   0  0  0  0  0  0
  -26.1448   20.1145   -8.8817 C   0  0  0  0  0  0
  -25.1128   20.1376   -9.9747 C   0  0  0  0  0  0
  -23.7375   20.2941   -9.7644 C   0  0  0  0  0  0
  -22.8456   20.3297  -10.8465 C   0  0  0  0  0  0
  -23.3199   20.2423  -12.1643 C   0  0  0  0  0  0
  -24.6897   20.0649  -12.3446 C   0  0  0  0  0  0
  -25.5671   19.9723  -11.2746 C   0  0  0  0  0  0
  -22.3914   20.3939  -13.2491 N   0  0  0  0  0  0
  -22.4070   19.4601  -14.2279 N   0  0  0  0  0  0
  -21.2842   19.6539  -14.9016 C   0  0  0  0  0  0
  -20.4740   20.7261  -14.4179 C   0  0  0  0  0  0
  -19.1163   20.8911  -15.1020 C   0  0  0  0  0  0
  -18.5262   21.9453  -14.9948 O   0  0  0  0  0  0
  -18.5566   19.8932  -15.9230 N   0  0  0  0  0  0
  -18.0526   18.7433  -15.3064 C   0  0  0  0  0  0
  -16.9779   17.9417  -15.9615 C   0  0  0  0  0  0
  -17.2000   17.8588  -17.4145 C   0  0  0  0  0  0
  -18.0521   18.6891  -18.0416 C   0  0  0  0  0  0
  -18.8553   19.7898  -17.3560 C   0  0  0  0  0  0
  -16.4021   16.7912  -18.0144 C   0  0  0  0  0  0
  -15.1070   16.5643  -17.5397 C   0  0  0  0  0  0
  -14.3567   15.5020  -18.0380 C   0  0  0  0  0  0
  -14.9095   14.6472  -18.9908 C   0  0  0  0  0  0
  -16.2285   14.8232  -19.4097 C   0  0  0  0  0  0
  -16.9804   15.8878  -18.9133 C   0  0  0  0  0  0
  -21.3445   21.3096  -13.4462 C   0  0  0  0  0  0
  -21.3334   22.5258  -12.7248 N   0  0  0  0  0  0
  -20.3481   23.5083  -12.8061 C   0  0  0  0  0  0
  -20.5604   24.4632  -11.8336 C   0  0  0  0  0  0
  -21.6885   24.0552  -11.1037 C   0  0  0  0  0  0
  -22.2725   23.0357  -11.8327 C   0  0  0  0  0  0
  1  2  1  0  0  0
  2  3  1  0  0  0
  3  4  2  0  0  0
  3  8  1  0  0  0
  4  5  1  0  0  0
  5  6  2  0  0  0
  6  7  1  0  0  0
  6  9  1  0  0  0
  7  8  2  0  0  0
  9 10  1  0  0  0
  9 27  1  0  0  0
 10 11  2  0  0  0
 11 12  1  0  0  0
 12 13  1  0  0  0
 12 27  2  0  0  0
 13 14  2  0  0  0
 13 15  1  0  0  0
 15 16  1  0  0  0
 15 20  1  0  0  0
 16 17  1  0  0  0
 17 18  1  0  0  0
 18 19  2  0  0  0
 18 21  1  0  0  0
 19 20  1  0  0  0
 21 22  2  0  0  0
 21 26  1  0  0  0
 22 23  1  0  0  0
 23 24  2  0  0  0
 24 25  1  0  0  0
 25 26  2  0  0  0
 27 28  1  0  0  0
 28 29  1  0  0  0
 28 32  1  0  0  0
 29 30  2  0  0  0
 30 31  1  0  0  0
 31 32  2  0  0  0
M  END
>  <CHROM.0>
39.61074892,-72.02251562,-6.05373627,65.08372150,-29.89126261,56.51341688
81.94475483,-162.00985580

>  <CHROM.1>
82.95463559,130.28998604,161.70921829,-72.99847870,-37.96568639,178.82149195
-20.37704854,19.76857074,-14.20076170,2.53388803,0.61948330,0.30989753

>  <Name>
F5578-1758

>  <RI>
2.21822e+07

>  <Rbt.Current_Directory>
/home/adria/Escritorio/rDock_CMTR_LC/2pxcA_model/inputs_sah

>  <Rbt.Executable>
rbdock ($Id: //depot/dev/client3/rdock/2013.1/src/exe/rbdock.cxx#4 $)

>  <Rbt.Library>
libRbt.so (2013.1, Build901 2013/11/27)

>  <Rbt.Parameter_File>
/home/adria/Escritorio/rDock_2013.1_src/data/scripts/dock.prm

>  <Rbt.Receptor>
sah_rdock.prm

>  <SCORE>
-56.8067

>  <SCORE.INTER>
-9.74926

>  <SCORE.INTER.CONST>
1

>  <SCORE.INTER.POLAR>
0

>  <SCORE.INTER.REPUL>
0

>  <SCORE.INTER.ROT>
6

>  <SCORE.INTER.VDW>
-21.1493

>  <SCORE.INTER.norm>
-0.304664

>  <SCORE.INTRA>
-44.2491

>  <SCORE.INTRA.DIHEDRAL>
-83.1144

>  <SCORE.INTRA.DIHEDRAL.0>
98.0328

>  <SCORE.INTRA.POLAR>
0

>  <SCORE.INTRA.POLAR.0>
0

>  <SCORE.INTRA.REPUL>
0

>  <SCORE.INTRA.REPUL.0>
0

>  <SCORE.INTRA.VDW>
-2.69186

>  <SCORE.INTRA.VDW.0>
1.05034

>  <SCORE.INTRA.norm>
-1.38278

>  <SCORE.RESTR>
0.0617383

>  <SCORE.RESTR.CAVITY>
0.0617383

>  <SCORE.RESTR.norm>
0.00192932

>  <SCORE.SYSTEM>
-2.87013

>  <SCORE.SYSTEM.CONST>
0

>  <SCORE.SYSTEM.DIHEDRAL>
11.3624

>  <SCORE.SYSTEM.POLAR>
-4.4809

>  <SCORE.SYSTEM.REPUL>
0.161207

>  <SCORE.SYSTEM.VDW>
5.8777

>  <SCORE.SYSTEM.norm>
-0.0896917

>  <SCORE.heavy>
32

>  <SCORE.norm>
-1.77521

$$$$
F5578-1758
  rDOCK(R)          3D
libRbt.so/2013.1/901 2013/11/27
 32 36  0  0  0  0  0  0  0  0999 V2000
  -14.6198   13.4334  -19.7746 C   0  0  0  0  0  0
  -14.0522   14.4414  -18.7946 C   0  0  0  0  0  0
  -15.0433   15.4779  -18.3435 C   0  0  0  0  0  0
  -16.4143   15.4407  -18.6251 C   0  0  0  0  0  0
  -17.2652   16.4655  -18.1854 C   0  0  0  0  0  0
  -16.7516   17.5660  -17.4824 C   0  0  0  0  0  0
  -15.3883   17.5674  -17.1963 C   0  0  0  0  0  0
  -14.5545   16.5279  -17.5804 C   0  0  0  0  0  0
  -17.6326   18.6487  -17.1454 N   0  0  0  0  0  0
  -17.6114   19.7479  -17.9338 N   0  0  0  0  0  0
  -18.2513   20.6766  -17.2408 C   0  0  0  0  0  0
  -18.7387   20.2446  -15.9697 C   0  0  0  0  0  0
  -19.3731   21.3305  -15.0997 C   0  0  0  0  0  0
  -19.1748   22.4955  -15.3726 O   0  0  0  0  0  0
  -20.1157   21.0335  -13.9406 N   0  0  0  0  0  0
  -21.3225   20.3433  -14.0940 C   0  0  0  0  0  0
  -22.4094   20.4837  -13.0812 C   0  0  0  0  0  0
  -21.8519   20.5283  -11.7194 C   0  0  0  0  0  0
  -20.5448   20.7606  -11.5045 C   0  0  0  0  0  0
  -19.5154   21.0123  -12.6017 C   0  0  0  0  0  0
  -22.8845   20.2847  -10.7139 C   0  0  0  0  0  0
  -22.5095   20.1631   -9.3728 C   0  0  0  0  0  0
  -23.4815   20.0122   -8.3869 C   0  0  0  0  0  0
  -24.8315   20.0111   -8.7360 C   0  0  0  0  0  0
  -25.2127   20.2103  -10.0630 C   0  0  0  0  0  0
  -24.2405   20.3595  -11.0518 C   0  0  0  0  0  0
  -18.4758   18.8416  -16.0385 C   0  0  0  0  0  0
  -18.8787   17.7295  -15.2635 N   0  0  0  0  0  0
  -18.4387   16.4182  -15.4360 C   0  0  0  0  0  0
  -19.1745   15.5702  -14.6347 C   0  0  0  0  0  0
  -20.1204   16.3635  -13.9653 C   0  0  0  0  0  0
  -19.7374   17.6763  -14.1691 C   0  0  0  0  0  0
  1  2  1  0  0  0
  2  3  1  0  0  0
  3  4  2  0  0  0
  3  8  1  0  0  0
  4  5  1  0  0  0
  5  6  2  0  0  0
  6  7  1  0  0  0
  6  9  1  0  0  0
  7  8  2  0  0  0
  9 10  1  0  0  0
  9 27  1  0  0  0
 10 11  2  0  0  0
 11 12  1  0  0  0
 12 13  1  0  0  0
 12 27  2  0  0  0
 13 14  2  0  0  0
 13 15  1  0  0  0
 15 16  1  0  0  0
 15 20  1  0  0  0
 16 17  1  0  0  0
 17 18  1  0  0  0
 18 19  2  0  0  0
 18 21  1  0  0  0
 19 20  1  0  0  0
 21 22  2  0  0  0
 21 26  1  0  0  0
 22 23  1  0  0  0
 23 24  2  0  0  0
 24 25  1  0  0  0
 25 26  2  0  0  0
 27 28  1  0  0  0
 28 29  1  0  0  0
 28 32  1  0  0  0
 29 30  2  0  0  0
 30 31  1  0  0  0
 31 32  2  0  0  0
M  END
>  <CHROM.0>
-176.78374993,-75.42864244,72.15286136,65.05652931,-30.10726255,-66.35756925
-157.47138866,-160.34250820

>  <CHROM.1>
8.80100130,-99.30714930,-15.97995224,-65.69284175,173.90991648,4.69358925
-19.30614163,18.68619680,-14.70814789,0.25747558,-0.84714640,2.95508163

>  <Name>
F5578-1758

>  <RI>
2.21822e+07

>  <Rbt.Current_Directory>
/home/adria/Escritorio/rDock_CMTR_LC/2pxcA_model/inputs_sah

>  <Rbt.Executable>
rbdock ($Id: //depot/dev/client3/rdock/2013.1/src/exe/rbdock.cxx#4 $)

>  <Rbt.Library>
libRbt.so (2013.1, Build901 2013/11/27)

>  <Rbt.Parameter_File>
/home/adria/Escritorio/rDock_2013.1_src/data/scripts/dock.prm

>  <Rbt.Receptor>
sah_rdock.prm

>  <SCORE>
-59.169

>  <SCORE.INTER>
-10.0506

>  <SCORE.INTER.CONST>
1

>  <SCORE.INTER.POLAR>
-0.807858

>  <SCORE.INTER.REPUL>
0

>  <SCORE.INTER.ROT>
6

>  <SCORE.INTER.VDW>
-18.7038

>  <SCORE.INTER.norm>
-0.31408

>  <SCORE.INTRA>
-41.6067

>  <SCORE.INTRA.DIHEDRAL>
-82.8634

>  <SCORE.INTRA.DIHEDRAL.0>
98.0328

>  <SCORE.INTRA.POLAR>
0

>  <SCORE.INTRA.POLAR.0>
0

>  <SCORE.INTRA.REPUL>
0

>  <SCORE.INTRA.REPUL.0>
0

>  <SCORE.INTRA.VDW>
-0.17504

>  <SCORE.INTRA.VDW.0>
1.05034

>  <SCORE.INTRA.norm>
-1.30021

>  <SCORE.RESTR>
0

>  <SCORE.RESTR.CAVITY>
0

>  <SCORE.RESTR.norm>
0

>  <SCORE.SYSTEM>
-7.51175

>  <SCORE.SYSTEM.CONST>
0

>  <SCORE.SYSTEM.DIHEDRAL>
6.97614

>  <SCORE.SYSTEM.POLAR>
-4.12704

>  <SCORE.SYSTEM.REPUL>
0.0425811

>  <SCORE.SYSTEM.VDW>
2.81922

>  <SCORE.SYSTEM.norm>
-0.234742

>  <SCORE.heavy>
32

>  <SCORE.norm>
-1.84903

$$$$
F5578-1758
  rDOCK(R)          3D
libRbt.so/2013.1/901 2013/11/27
 32 36  0  0  0  0  0  0  0  0999 V2000
  -14.6068   13.8325  -18.7909 C   0  0  0  0  0  0
  -15.9042   13.2256  -18.2936 C   0  0  0  0  0  0
  -16.6788   14.1191  -17.3652 C   0  0  0  0  0  0
  -16.8618   13.8760  -15.9987 C   0  0  0  0  0  0
  -17.6224   14.7515  -15.2096 C   0  0  0  0  0  0
  -18.2429   15.8717  -15.7835 C   0  0  0  0  0  0
  -18.0266   16.1024  -17.1400 C   0  0  0  0  0  0
  -17.2285   15.2699  -17.9103 C   0  0  0  0  0  0
  -19.1039   16.6830  -14.9696 N   0  0  0  0  0  0
  -19.8635   16.0602  -14.0394 N   0  0  0  0  0  0
  -20.7596   16.9622  -13.6717 C   0  0  0  0  0  0
  -20.6375   18.2270  -14.3239 C   0  0  0  0  0  0
  -21.7342   19.2444  -14.0068 C   0  0  0  0  0  0
  -22.8581   19.0474  -14.4180 O   0  0  0  0  0  0
  -21.4751   20.4476  -13.3225 N   0  0  0  0  0  0
  -21.8313   20.5238  -11.9721 C   0  0  0  0  0  0
  -22.1335   21.8420  -11.3415 C   0  0  0  0  0  0
  -21.2116   22.8795  -11.8326 C   0  0  0  0  0  0
  -20.4679   22.6904  -12.9370 C   0  0  0  0  0  0
  -20.4944   21.4308  -13.7970 C   0  0  0  0  0  0
  -21.2334   24.0607  -10.9719 C   0  0  0  0  0  0
  -22.3875   24.3411  -10.2346 C   0  0  0  0  0  0
  -22.4051   25.4135   -9.3462 C   0  0  0  0  0  0
  -21.2605   26.1905   -9.1716 C   0  0  0  0  0  0
  -20.0835   25.8667   -9.8468 C   0  0  0  0  0  0
  -20.0648   24.7944  -10.7384 C   0  0  0  0  0  0
  -19.4059   18.0537  -15.0278 C   0  0  0  0  0  0
  -18.5297   18.9353  -15.7021 N   0  0  0  0  0  0
  -17.3063   18.5856  -16.2712 C   0  0  0  0  0  0
  -16.6381   19.7225  -16.6756 C   0  0  0  0  0  0
  -17.4473   20.8152  -16.3246 C   0  0  0  0  0  0
  -18.6805   20.2898  -15.9857 C   0  0  0  0  0  0
  1  2  1  0  0  0
  2  3  1  0  0  0
  3  4  2  0  0  0
  3  8  1  0  0  0
  4  5  1  0  0  0
  5  6  2  0  0  0
  6  7  1  0  0  0
  6  9  1  0  0  0
  7  8  2  0  0  0
  9 10  1  0  0  0
  9 27  1  0  0  0
 10 11  2  0  0  0
 11 12  1  0  0  0
 12 13  1  0  0  0
 12 27  2  0  0  0
 13 14  2  0  0  0
 13 15  1  0  0  0
 15 16  1  0  0  0
 15 20  1  0  0  0
 16 17  1  0  0  0
 17 18  1  0  0  0
 18 19  2  0  0  0
 18 21  1  0  0  0
 19 20  1  0  0  0
 21 22  2  0  0  0
 21 26  1  0  0  0
 22 23  1  0  0  0
 23 24  2  0  0  0
 24 25  1  0  0  0
 25 26  2  0  0  0
 27 28  1  0  0  0
 28 29  1  0  0  0
 28 32  1  0  0  0
 29 30  2  0  0  0
 30 31  1  0  0  0
 31 32  2  0  0  0
M  END
>  <CHROM.0>
-61.40789538,-72.53283531,109.06786487,63.53064908,168.35908122,-57.77163399
-157.84525596,-162.63988214

>  <CHROM.1>
-111.14554290,-35.98613322,-69.26562948,-102.97208619,-26.67137177,-4.22139018
-19.47684080,19.34491962,-14.19302728,-1.11241347,0.56229489,0.35064982

>  <Name>
F5578-1758

>  <RI>
2.21822e+07

>  <Rbt.Current_Directory>
/home/adria/Escritorio/rDock_CMTR_LC/2pxcA_model/inputs_sah

>  <Rbt.Executable>
rbdock ($Id: //depot/dev/client3/rdock/2013.1/src/exe/rbdock.cxx#4 $)

>  <Rbt.Library>
libRbt.so (2013.1, Build901 2013/11/27)

>  <Rbt.Parameter_File>
/home/adria/Escritorio/rDock_2013.1_src/data/scripts/dock.prm

>  <Rbt.Receptor>
sah_rdock.prm

>  <SCORE>
-57.3946

>  <SCORE.INTER>
-15.5493

>  <SCORE.INTER.CONST>
1

>  <SCORE.INTER.POLAR>
-0.391955

>  <SCORE.INTER.REPUL>
0

>  <SCORE.INTER.ROT>
6

>  <SCORE.INTER.VDW>
-25.6167

>  <SCORE.INTER.norm>
-0.485916

>  <SCORE.INTRA>
-39.184

>  <SCORE.INTRA.DIHEDRAL>
-79.1695

>  <SCORE.INTRA.DIHEDRAL.0>
98.0328

>  <SCORE.INTRA.POLAR>
0

>  <SCORE.INTRA.POLAR.0>
0

>  <SCORE.INTRA.REPUL>
0

>  <SCORE.INTRA.REPUL.0>
0

>  <SCORE.INTRA.VDW>
0.400772

>  <SCORE.INTRA.VDW.0>
1.05034

>  <SCORE.INTRA.norm>
-1.2245

>  <SCORE.RESTR>
0

>  <SCORE.RESTR.CAVITY>
0

>  <SCORE.RESTR.norm>
0

>  <SCORE.SYSTEM>
-2.6613

>  <SCORE.SYSTEM.CONST>
0

>  <SCORE.SYSTEM.DIHEDRAL>
6.30125

>  <SCORE.SYSTEM.POLAR>
-4.52465

>  <SCORE.SYSTEM.REPUL>
0.0376906

>  <SCORE.SYSTEM.VDW>
9.38342

>  <SCORE.SYSTEM.norm>
-0.0831657

>  <SCORE.heavy>
32

>  <SCORE.norm>
-1.79358

$$$$
F5578-1758
  rDOCK(R)          3D
libRbt.so/2013.1/901 2013/11/27
 32 36  0  0  0  0  0  0  0  0999 V2000
  -15.1658   14.1475  -18.9900 C   0  0  0  0  0  0
  -15.5877   15.6038  -18.9755 C   0  0  0  0  0  0
  -16.5876   15.9382  -17.9038 C   0  0  0  0  0  0
  -17.9478   15.6107  -17.9574 C   0  0  0  0  0  0
  -18.8172   15.9847  -16.9221 C   0  0  0  0  0  0
  -18.3452   16.7246  -15.8272 C   0  0  0  0  0  0
  -16.9841   17.0180  -15.7878 C   0  0  0  0  0  0
  -16.1119   16.6004  -16.7819 C   0  0  0  0  0  0
  -19.2834   17.1852  -14.8426 N   0  0  0  0  0  0
  -19.8101   16.2703  -13.9965 N   0  0  0  0  0  0
  -20.8408   16.8806  -13.4333 C   0  0  0  0  0  0
  -21.0459   18.2274  -13.8626 C   0  0  0  0  0  0
  -22.3007   18.9120  -13.3191 C   0  0  0  0  0  0
  -23.3658   18.3367  -13.3942 O   0  0  0  0  0  0
  -22.2849   20.2232  -12.8057 N   0  0  0  0  0  0
  -21.0443   20.7940  -12.5030 C   0  0  0  0  0  0
  -20.9358   21.8684  -11.4732 C   0  0  0  0  0  0
  -22.0760   22.7954  -11.5634 C   0  0  0  0  0  0
  -23.1886   22.4736  -12.2469 C   0  0  0  0  0  0
  -23.4084   21.1518  -12.9758 C   0  0  0  0  0  0
  -21.8081   24.0392  -10.8439 C   0  0  0  0  0  0
  -22.8445   24.6447  -10.1274 C   0  0  0  0  0  0
  -22.5951   25.7852   -9.3680 C   0  0  0  0  0  0
  -21.3036   26.3064   -9.3000 C   0  0  0  0  0  0
  -20.2517   25.6606   -9.9501 C   0  0  0  0  0  0
  -20.5002   24.5197  -10.7128 C   0  0  0  0  0  0
  -19.8719   18.4458  -14.6477 C   0  0  0  0  0  0
  -19.2640   19.5953  -15.2032 N   0  0  0  0  0  0
  -18.1062   19.6061  -15.9793 C   0  0  0  0  0  0
  -17.6987   20.9067  -16.1910 C   0  0  0  0  0  0
  -18.6047   21.7324  -15.5058 C   0  0  0  0  0  0
  -19.6700   20.9258  -15.1505 C   0  0  0  0  0  0
  1  2  1  0  0  0
  2  3  1  0  0  0
  3  4  2  0  0  0
  3  8  1  0  0  0
  4  5  1  0  0  0
  5  6  2  0  0  0
  6  7  1  0  0  0
  6  9  1  0  0  0
  7  8  2  0  0  0
  9 10  1  0  0  0
  9 27  1  0  0  0
 10 11  2  0  0  0
 11 12  1  0  0  0
 12 13  1  0  0  0
 12 27  2  0  0  0
 13 14  2  0  0  0
 13 15  1  0  0  0
 15 16  1  0  0  0
 15 20  1  0  0  0
 16 17  1  0  0  0
 17 18  1  0  0  0
 18 19  2  0  0  0
 18 21  1  0  0  0
 19 20  1  0  0  0
 21 22  2  0  0  0
 21 26  1  0  0  0
 22 23  1  0  0  0
 23 24  2  0  0  0
 24 25  1  0  0  0
 25 26  2  0  0  0
 27 28  1  0  0  0
 28 29  1  0  0  0
 28 32  1  0  0  0
 29 30  2  0  0  0
 30 31  1  0  0  0
 31 32  2  0  0  0
M  END
>  <CHROM.0>
41.02662639,-73.52865672,-6.69784454,-63.58876785,-30.65970151,57.54577899
-156.99382565,-162.59761103

>  <CHROM.1>
-75.80698246,73.06880180,-49.34423669,-14.88816063,-141.68130614,1.38458040
-19.92727731,19.79825492,-14.03810786,-1.07189756,0.49796008,0.43333180

>  <Name>
F5578-1758

>  <RI>
2.21822e+07

>  <Rbt.Current_Directory>
/home/adria/Escritorio/rDock_CMTR_LC/2pxcA_model/inputs_sah

>  <Rbt.Executable>
rbdock ($Id: //depot/dev/client3/rdock/2013.1/src/exe/rbdock.cxx#4 $)

>  <Rbt.Library>
libRbt.so (2013.1, Build901 2013/11/27)

>  <Rbt.Parameter_File>
/home/adria/Escritorio/rDock_2013.1_src/data/scripts/dock.prm

>  <Rbt.Receptor>
sah_rdock.prm

>  <SCORE>
-55.5882

>  <SCORE.INTER>
-14.4521

>  <SCORE.INTER.CONST>
1

>  <SCORE.INTER.POLAR>
-0.516861

>  <SCORE.INTER.REPUL>
0

>  <SCORE.INTER.ROT>
6

>  <SCORE.INTER.VDW>
-24.0947

>  <SCORE.INTER.norm>
-0.451627

>  <SCORE.INTRA>
-38.1405

>  <SCORE.INTRA.DIHEDRAL>
-75.143

>  <SCORE.INTRA.DIHEDRAL.0>
98.0328

>  <SCORE.INTRA.POLAR>
0

>  <SCORE.INTRA.POLAR.0>
0

>  <SCORE.INTRA.REPUL>
0

>  <SCORE.INTRA.REPUL.0>
0

>  <SCORE.INTRA.VDW>
-0.568999

>  <SCORE.INTRA.VDW.0>
1.05034

>  <SCORE.INTRA.norm>
-1.19189

>  <SCORE.RESTR>
0

>  <SCORE.RESTR.CAVITY>
0

>  <SCORE.RESTR.norm>
0

>  <SCORE.SYSTEM>
-2.99565

>  <SCORE.SYSTEM.CONST>
0

>  <SCORE.SYSTEM.DIHEDRAL>
11.1302

>  <SCORE.SYSTEM.POLAR>
-4.60475

>  <SCORE.SYSTEM.REPUL>
0.159163

>  <SCORE.SYSTEM.VDW>
6.29956

>  <SCORE.SYSTEM.norm>
-0.0936141

>  <SCORE.heavy>
32

>  <SCORE.norm>
-1.73713

$$$$
F5578-1758
  rDOCK(R)          3D
libRbt.so/2013.1/901 2013/11/27
 32 36  0  0  0  0  0  0  0  0999 V2000
  -25.3223   23.1532   -9.8409 C   0  0  0  0  0  0
  -24.2492   24.1657  -10.1902 C   0  0  0  0  0  0
  -23.2252   23.6567  -11.1661 C   0  0  0  0  0  0
  -23.2803   23.8564  -12.5508 C   0  0  0  0  0  0
  -22.2929   23.3232  -13.3925 C   0  0  0  0  0  0
  -21.2477   22.5500  -12.8645 C   0  0  0  0  0  0
  -21.2041   22.3853  -11.4821 C   0  0  0  0  0  0
  -22.1471   22.9588  -10.6423 C   0  0  0  0  0  0
  -20.3187   21.9282  -13.7658 N   0  0  0  0  0  0
  -19.4854   22.7315  -14.4662 N   0  0  0  0  0  0
  -18.9843   21.9576  -15.4159 C   0  0  0  0  0  0
  -19.4449   20.6058  -15.3908 C   0  0  0  0  0  0
  -18.9758   19.7247  -16.5493 C   0  0  0  0  0  0
  -19.1052   20.1271  -17.6861 O   0  0  0  0  0  0
  -18.4714   18.4244  -16.3547 N   0  0  0  0  0  0
  -19.3782   17.3596  -16.3737 C   0  0  0  0  0  0
  -19.0768   16.0947  -15.6417 C   0  0  0  0  0  0
  -17.6535   15.7419  -15.7725 C   0  0  0  0  0  0
  -16.7451   16.6390  -16.1954 C   0  0  0  0  0  0
  -17.0593   18.0851  -16.5653 C   0  0  0  0  0  0
  -17.4147   14.3486  -15.4009 C   0  0  0  0  0  0
  -16.1537   13.7917  -15.6328 C   0  0  0  0  0  0
  -15.8763   12.4927  -15.2141 C   0  0  0  0  0  0
  -16.8491   11.7578  -14.5374 C   0  0  0  0  0  0
  -18.0816   12.3371  -14.2351 C   0  0  0  0  0  0
  -18.3617   13.6371  -14.6556 C   0  0  0  0  0  0
  -20.1737   20.5882  -14.1616 C   0  0  0  0  0  0
  -20.7166   19.5586  -13.3586 N   0  0  0  0  0  0
  -20.6440   18.1935  -13.6310 C   0  0  0  0  0  0
  -21.4367   17.4978  -12.7421 C   0  0  0  0  0  0
  -22.0464   18.4508  -11.9103 C   0  0  0  0  0  0
  -21.3873   19.6440  -12.1417 C   0  0  0  0  0  0
  1  2  1  0  0  0
  2  3  1  0  0  0
  3  4  2  0  0  0
  3  8  1  0  0  0
  4  5  1  0  0  0
  5  6  2  0  0  0
  6  7  1  0  0  0
  6  9  1  0  0  0
  7  8  2  0  0  0
  9 10  1  0  0  0
  9 27  1  0  0  0
 10 11  2  0  0  0
 11 12  1  0  0  0
 12 13  1  0  0  0
 12 27  2  0  0  0
 13 14  2  0  0  0
 13 15  1  0  0  0
 15 16  1  0  0  0
 15 20  1  0  0  0
 16 17  1  0  0  0
 17 18  1  0  0  0
 18 19  2  0  0  0
 18 21  1  0  0  0
 19 20  1  0  0  0
 21 22  2  0  0  0
 21 26  1  0  0  0
 22 23  1  0  0  0
 23 24  2  0  0  0
 24 25  1  0  0  0
 25 26  2  0  0  0
 27 28  1  0  0  0
 28 29  1  0  0  0
 28 32  1  0  0  0
 29 30  2  0  0  0
 30 31  1  0  0  0
 31 32  2  0  0  0
M  END
>  <CHROM.0>
-177.45012467,67.11923650,108.04648753,61.76992281,-30.34858130,-177.42301676
-157.42858035,-158.24057417

>  <CHROM.1>
94.98058827,68.07389029,-49.96685509,89.86237251,171.61891265,-179.90277148
-19.92229439,19.02534916,-14.06884932,2.46453782,0.88206267,-0.36292813

>  <Name>
F5578-1758

>  <RI>
2.21822e+07

>  <Rbt.Current_Directory>
/home/adria/Escritorio/rDock_CMTR_LC/2pxcA_model/inputs_sah

>  <Rbt.Executable>
rbdock ($Id: //depot/dev/client3/rdock/2013.1/src/exe/rbdock.cxx#4 $)

>  <Rbt.Library>
libRbt.so (2013.1, Build901 2013/11/27)

>  <Rbt.Parameter_File>
/home/adria/Escritorio/rDock_2013.1_src/data/scripts/dock.prm

>  <Rbt.Receptor>
sah_rdock.prm

>  <SCORE>
-59.6248

>  <SCORE.INTER>
-12.248

>  <SCORE.INTER.CONST>
1

>  <SCORE.INTER.POLAR>
0

>  <SCORE.INTER.REPUL>
0

>  <SCORE.INTER.ROT>
6

>  <SCORE.INTER.VDW>
-23.648

>  <SCORE.INTER.norm>
-0.382751

>  <SCORE.INTRA>
-40.7257

>  <SCORE.INTRA.DIHEDRAL>
-79.0033

>  <SCORE.INTRA.DIHEDRAL.0>
98.0328

>  <SCORE.INTRA.POLAR>
0

>  <SCORE.INTRA.POLAR.0>
0

>  <SCORE.INTRA.REPUL>
0

>  <SCORE.INTRA.REPUL.0>
0

>  <SCORE.INTRA.VDW>
-1.22406

>  <SCORE.INTRA.VDW.0>
1.05034

>  <SCORE.INTRA.norm>
-1.27268

>  <SCORE.RESTR>
0

>  <SCORE.RESTR.CAVITY>
0

>  <SCORE.RESTR.norm>
0

>  <SCORE.SYSTEM>
-6.65104

>  <SCORE.SYSTEM.CONST>
0

>  <SCORE.SYSTEM.DIHEDRAL>
8.88157

>  <SCORE.SYSTEM.POLAR>
-4.27175

>  <SCORE.SYSTEM.VDW>
3.43214

>  <SCORE.SYSTEM.norm>
-0.207845

>  <SCORE.heavy>
32

>  <SCORE.norm>
-1.86327

$$$$
F5578-1758
  rDOCK(R)          3D
libRbt.so/2013.1/901 2013/11/27
 32 36  0  0  0  0  0  0  0  0999 V2000
  -21.8004   26.4190   -9.2135 C   0  0  0  0  0  0
  -21.7790   26.1251  -10.7007 C   0  0  0  0  0  0
  -21.3470   24.7255  -11.0395 C   0  0  0  0  0  0
  -20.0438   24.2378  -10.8848 C   0  0  0  0  0  0
  -19.7216   22.9226  -11.2508 C   0  0  0  0  0  0
  -20.6941   22.0801  -11.8110 C   0  0  0  0  0  0
  -21.9874   22.5827  -11.9333 C   0  0  0  0  0  0
  -22.3216   23.8635  -11.5197 C   0  0  0  0  0  0
  -20.3027   20.7791  -12.2760 N   0  0  0  0  0  0
  -19.1351   20.6756  -12.9515 N   0  0  0  0  0  0
  -19.1754   19.4812  -13.5205 C   0  0  0  0  0  0
  -20.3574   18.7278  -13.2464 C   0  0  0  0  0  0
  -20.4822   17.3973  -13.9900 C   0  0  0  0  0  0
  -21.3410   16.6108  -13.6514 O   0  0  0  0  0  0
  -19.5850   17.0105  -15.0042 N   0  0  0  0  0  0
  -19.1112   15.6945  -14.9935 C   0  0  0  0  0  0
  -17.7967   15.3576  -15.6143 C   0  0  0  0  0  0
  -17.6003   16.1116  -16.8634 C   0  0  0  0  0  0
  -18.3575   17.1823  -17.1621 C   0  0  0  0  0  0
  -19.4640   17.7392  -16.2721 C   0  0  0  0  0  0
  -16.5268   15.5342  -17.6699 C   0  0  0  0  0  0
  -15.7690   16.3740  -18.4913 C   0  0  0  0  0  0
  -14.6894   15.8623  -19.2069 C   0  0  0  0  0  0
  -14.3471   14.5165  -19.0811 C   0  0  0  0  0  0
  -15.0520   13.6928  -18.2031 C   0  0  0  0  0  0
  -16.1348   14.2032  -17.4873 C   0  0  0  0  0  0
  -20.9830   19.5502  -12.2591 C   0  0  0  0  0  0
  -22.0578   19.3576  -11.3607 N   0  0  0  0  0  0
  -22.8322   18.2032  -11.2576 C   0  0  0  0  0  0
  -23.9013   18.4324  -10.4167 C   0  0  0  0  0  0
  -23.8140   19.7722  -10.0054 C   0  0  0  0  0  0
  -22.5577   20.2108  -10.3808 C   0  0  0  0  0  0
  1  2  1  0  0  0
  2  3  1  0  0  0
  3  4  2  0  0  0
  3  8  1  0  0  0
  4  5  1  0  0  0
  5  6  2  0  0  0
  6  7  1  0  0  0
  6  9  1  0  0  0
  7  8  2  0  0  0
  9 10  1  0  0  0
  9 27  1  0  0  0
 10 11  2  0  0  0
 11 12  1  0  0  0
 12 13  1  0  0  0
 12 27  2  0  0  0
 13 14  2  0  0  0
 13 15  1  0  0  0
 15 16  1  0  0  0
 15 20  1  0  0  0
 16 17  1  0  0  0
 17 18  1  0  0  0
 18 19  2  0  0  0
 18 21  1  0  0  0
 19 20  1  0  0  0
 21 22  2  0  0  0
 21 26  1  0  0  0
 22 23  1  0  0  0
 23 24  2  0  0  0
 24 25  1  0  0  0
 25 26  2  0  0  0
 27 28  1  0  0  0
 28 29  1  0  0  0
 28 32  1  0  0  0
 29 30  2  0  0  0
 30 31  1  0  0  0
 31 32  2  0  0  0
M  END
>  <CHROM.0>
-179.00216503,-71.21352431,-49.12032976,66.63174015,-29.47615330,-177.36556065
-35.44448037,-157.14918077

>  <CHROM.1>
-69.99434504,-41.61372465,168.25784623,135.93493800,-149.53179322,178.67397851
-19.74576106,19.12330629,-13.71567922,-2.20342696,-0.67592049,-2.84573636

>  <Name>
F5578-1758

>  <RI>
2.21822e+07

>  <Rbt.Current_Directory>
/home/adria/Escritorio/rDock_CMTR_LC/2pxcA_model/inputs_sah

>  <Rbt.Executable>
rbdock ($Id: //depot/dev/client3/rdock/2013.1/src/exe/rbdock.cxx#4 $)

>  <Rbt.Library>
libRbt.so (2013.1, Build901 2013/11/27)

>  <Rbt.Parameter_File>
/home/adria/Escritorio/rDock_2013.1_src/data/scripts/dock.prm

>  <Rbt.Receptor>
sah_rdock.prm

>  <SCORE>
-62.5356

>  <SCORE.INTER>
-10.5315

>  <SCORE.INTER.CONST>
1

>  <SCORE.INTER.POLAR>
0

>  <SCORE.INTER.REPUL>
0.00570302

>  <SCORE.INTER.ROT>
6

>  <SCORE.INTER.VDW>
-21.96

>  <SCORE.INTER.norm>
-0.329109

>  <SCORE.INTRA>
-45.0238

>  <SCORE.INTRA.DIHEDRAL>
-88.6175

>  <SCORE.INTRA.DIHEDRAL.0>
98.0328

>  <SCORE.INTRA.POLAR>
0

>  <SCORE.INTRA.POLAR.0>
0

>  <SCORE.INTRA.REPUL>
0

>  <SCORE.INTRA.REPUL.0>
0

>  <SCORE.INTRA.VDW>
-0.715057

>  <SCORE.INTRA.VDW.0>
1.05034

>  <SCORE.INTRA.norm>
-1.40699

>  <SCORE.RESTR>
0

>  <SCORE.RESTR.CAVITY>
0

>  <SCORE.RESTR.norm>
0

>  <SCORE.SYSTEM>
-6.98035

>  <SCORE.SYSTEM.CONST>
0

>  <SCORE.SYSTEM.DIHEDRAL>
6.84075

>  <SCORE.SYSTEM.POLAR>
-3.9448

>  <SCORE.SYSTEM.REPUL>
0.0351904

>  <SCORE.SYSTEM.VDW>
2.83565

>  <SCORE.SYSTEM.norm>
-0.218136

>  <SCORE.heavy>
32

>  <SCORE.norm>
-1.95424

$$$$
F5578-1758
  rDOCK(R)          3D
libRbt.so/2013.1/901 2013/11/27
 32 36  0  0  0  0  0  0  0  0999 V2000
  -26.4774   23.3340   -7.6694 C   0  0  0  0  0  0
  -24.9854   23.1992   -7.9028 C   0  0  0  0  0  0
  -24.6284   22.5889   -9.2295 C   0  0  0  0  0  0
  -25.1048   23.0423  -10.4655 C   0  0  0  0  0  0
  -24.7398   22.3964  -11.6559 C   0  0  0  0  0  0
  -23.9153   21.2612  -11.6271 C   0  0  0  0  0  0
  -23.4374   20.8446  -10.3869 C   0  0  0  0  0  0
  -23.7507   21.5151   -9.2141 C   0  0  0  0  0  0
  -23.6531   20.5607  -12.8529 N   0  0  0  0  0  0
  -24.7014   20.3015  -13.6679 N   0  0  0  0  0  0
  -24.2498   19.4028  -14.5285 C   0  0  0  0  0  0
  -22.8843   19.0282  -14.3405 C   0  0  0  0  0  0
  -22.3758   17.9035  -15.2434 C   0  0  0  0  0  0
  -23.1754   17.1383  -15.7394 O   0  0  0  0  0  0
  -21.0042   17.6684  -15.4593 N   0  0  0  0  0  0
  -20.2983   18.5831  -16.2476 C   0  0  0  0  0  0
  -19.0735   18.1589  -16.9870 C   0  0  0  0  0  0
  -18.2636   17.2387  -16.1718 C   0  0  0  0  0  0
  -18.7727   16.6327  -15.0844 C   0  0  0  0  0  0
  -20.2037   16.8036  -14.5848 C   0  0  0  0  0  0
  -16.9070   17.1129  -16.7013 C   0  0  0  0  0  0
  -16.2304   15.8989  -16.5509 C   0  0  0  0  0  0
  -14.9697   15.7274  -17.1171 C   0  0  0  0  0  0
  -14.3947   16.7585  -17.8591 C   0  0  0  0  0  0
  -15.0993   17.9426  -18.0774 C   0  0  0  0  0  0
  -16.3610   18.1168  -17.5092 C   0  0  0  0  0  0
  -22.4779   19.9678  -13.3433 C   0  0  0  0  0  0
  -21.2244   20.3622  -12.8210 N   0  0  0  0  0  0
  -21.0209   21.3489  -11.8578 C   0  0  0  0  0  0
  -19.6711   21.5990  -11.7242 C   0  0  0  0  0  0
  -19.0118   20.7714  -12.6475 C   0  0  0  0  0  0
  -19.9538   19.8631  -13.0938 C   0  0  0  0  0  0
  1  2  1  0  0  0
  2  3  1  0  0  0
  3  4  2  0  0  0
  3  8  1  0  0  0
  4  5  1  0  0  0
  5  6  2  0  0  0
  6  7  1  0  0  0
  6  9  1  0  0  0
  7  8  2  0  0  0
  9 10  1  0  0  0
  9 27  1  0  0  0
 10 11  2  0  0  0
 11 12  1  0  0  0
 12 13  1  0  0  0
 12 27  2  0  0  0
 13 14  2  0  0  0
 13 15  1  0  0  0
 15 16  1  0  0  0
 15 20  1  0  0  0
 16 17  1  0  0  0
 17 18  1  0  0  0
 18 19  2  0  0  0
 18 21  1  0  0  0
 19 20  1  0  0  0
 21 22  2  0  0  0
 21 26  1  0  0  0
 22 23  1  0  0  0
 23 24  2  0  0  0
 24 25  1  0  0  0
 25 26  2  0  0  0
 27 28  1  0  0  0
 28 29  1  0  0  0
 28 32  1  0  0  0
 29 30  2  0  0  0
 30 31  1  0  0  0
 31 32  2  0  0  0
M  END
>  <CHROM.0>
-177.36719108,-73.59915001,-46.80554067,-59.40623302,168.65929587,61.75468190
-38.83567684,-160.59779758

>  <CHROM.1>
52.57093909,-45.91791002,-22.21073961,-71.83876218,-148.19145150,-2.15546516
-21.07892754,19.47545601,-13.68481458,-2.30861310,-0.02813566,-2.23708773

>  <Name>
F5578-1758

>  <RI>
2.21822e+07

>  <Rbt.Current_Directory>
/home/adria/Escritorio/rDock_CMTR_LC/2pxcA_model/inputs_sah

>  <Rbt.Executable>
rbdock ($Id: //depot/dev/client3/rdock/2013.1/src/exe/rbdock.cxx#4 $)

>  <Rbt.Library>
libRbt.so (2013.1, Build901 2013/11/27)

>  <Rbt.Parameter_File>
/home/adria/Escritorio/rDock_2013.1_src/data/scripts/dock.prm

>  <Rbt.Receptor>
sah_rdock.prm

>  <SCORE>
-54.3257

>  <SCORE.INTER>
-7.65313

>  <SCORE.INTER.CONST>
1

>  <SCORE.INTER.POLAR>
0

>  <SCORE.INTER.REPUL>
0.00990192

>  <SCORE.INTER.ROT>
6

>  <SCORE.INTER.VDW>
-19.1026

>  <SCORE.INTER.norm>
-0.23916

>  <SCORE.INTRA>
-44.6367

>  <SCORE.INTRA.DIHEDRAL>
-86.3733

>  <SCORE.INTRA.DIHEDRAL.0>
98.0328

>  <SCORE.INTRA.POLAR>
0

>  <SCORE.INTRA.POLAR.0>
0

>  <SCORE.INTRA.REPUL>
0

>  <SCORE.INTRA.REPUL.0>
0

>  <SCORE.INTRA.VDW>
-1.45003

>  <SCORE.INTRA.VDW.0>
1.05034

>  <SCORE.INTRA.norm>
-1.3949

>  <SCORE.RESTR>
0.00482226

>  <SCORE.RESTR.CAVITY>
0.00482226

>  <SCORE.RESTR.norm>
0.000150696

>  <SCORE.SYSTEM>
-2.04073

>  <SCORE.SYSTEM.CONST>
0

>  <SCORE.SYSTEM.DIHEDRAL>
3.4739

>  <SCORE.SYSTEM.POLAR>
-3.86072

>  <SCORE.SYSTEM.REPUL>
0.0395879

>  <SCORE.SYSTEM.VDW>
9.15081

>  <SCORE.SYSTEM.norm>
-0.0637729

>  <SCORE.heavy>
32

>  <SCORE.norm>
-1.69768

$$$$
F5578-1758
  rDOCK(R)          3D
libRbt.so/2013.1/901 2013/11/27
 32 36  0  0  0  0  0  0  0  0999 V2000
  -16.6088   12.5578  -20.2611 C   0  0  0  0  0  0
  -15.6108   13.1310  -19.2742 C   0  0  0  0  0  0
  -16.1494   14.2706  -18.4548 C   0  0  0  0  0  0
  -16.4945   15.5255  -18.9708 C   0  0  0  0  0  0
  -16.9669   16.5426  -18.1283 C   0  0  0  0  0  0
  -17.0710   16.3314  -16.7449 C   0  0  0  0  0  0
  -16.7423   15.0673  -16.2606 C   0  0  0  0  0  0
  -16.3292   14.0424  -17.0986 C   0  0  0  0  0  0
  -17.4518   17.4286  -15.9005 N   0  0  0  0  0  0
  -18.4397   17.2185  -15.0004 N   0  0  0  0  0  0
  -18.7969   18.4279  -14.5981 C   0  0  0  0  0  0
  -18.0632   19.4979  -15.1956 C   0  0  0  0  0  0
  -18.5390   20.9070  -14.8397 C   0  0  0  0  0  0
  -18.0594   21.8561  -15.4228 O   0  0  0  0  0  0
  -19.4568   21.1558  -13.8010 N   0  0  0  0  0  0
  -20.5919   21.9174  -14.0974 C   0  0  0  0  0  0
  -21.2833   22.6944  -13.0274 C   0  0  0  0  0  0
  -21.3197   21.9319  -11.7686 C   0  0  0  0  0  0
  -20.5282   20.8621  -11.5742 C   0  0  0  0  0  0
  -19.5201   20.3315  -12.5885 C   0  0  0  0  0  0
  -22.2990   22.4892  -10.8375 C   0  0  0  0  0  0
  -23.0137   21.6221  -10.0060 C   0  0  0  0  0  0
  -23.8925   22.1335   -9.0542 C   0  0  0  0  0  0
  -24.0375   23.5130   -8.9120 C   0  0  0  0  0  0
  -23.2685   24.3823   -9.6860 C   0  0  0  0  0  0
  -22.3895   23.8718  -10.6410 C   0  0  0  0  0  0
  -17.0523   18.7753  -15.9016 C   0  0  0  0  0  0
  -15.8434   19.1462  -16.5345 N   0  0  0  0  0  0
  -15.3244   20.4383  -16.5986 C   0  0  0  0  0  0
  -14.2368   20.4623  -17.4466 C   0  0  0  0  0  0
  -14.0871   19.1606  -17.9516 C   0  0  0  0  0  0
  -14.9013   18.3512  -17.1813 C   0  0  0  0  0  0
  1  2  1  0  0  0
  2  3  1  0  0  0
  3  4  2  0  0  0
  3  8  1  0  0  0
  4  5  1  0  0  0
  5  6  2  0  0  0
  6  7  1  0  0  0
  6  9  1  0  0  0
  7  8  2  0  0  0
  9 10  1  0  0  0
  9 27  1  0  0  0
 10 11  2  0  0  0
 11 12  1  0  0  0
 12 13  1  0  0  0
 12 27  2  0  0  0
 13 14  2  0  0  0
 13 15  1  0  0  0
 15 16  1  0  0  0
 15 20  1  0  0  0
 16 17  1  0  0  0
 17 18  1  0  0  0
 18 19  2  0  0  0
 18 21  1  0  0  0
 19 20  1  0  0  0
 21 22  2  0  0  0
 21 26  1  0  0  0
 22 23  1  0  0  0
 23 24  2  0  0  0
 24 25  1  0  0  0
 25 26  2  0  0  0
 27 28  1  0  0  0
 28 29  1  0  0  0
 28 32  1  0  0  0
 29 30  2  0  0  0
 30 31  1  0  0  0
 31 32  2  0  0  0
M  END
>  <CHROM.0>
-177.42757845,-167.00582744,-47.50424545,63.81203379,168.11095436,-56.87642632
-156.23278009,-166.43250277

>  <CHROM.1>
-67.08247136,130.97784745,-171.97184541,-127.45321370,144.85602938,-179.34528756
-18.55909590,19.23686208,-14.83924343,0.83620984,-0.66214664,-2.83961743

>  <Name>
F5578-1758

>  <RI>
2.21822e+07

>  <Rbt.Current_Directory>
/home/adria/Escritorio/rDock_CMTR_LC/2pxcA_model/inputs_sah

>  <Rbt.Executable>
rbdock ($Id: //depot/dev/client3/rdock/2013.1/src/exe/rbdock.cxx#4 $)

>  <Rbt.Library>
libRbt.so (2013.1, Build901 2013/11/27)

>  <Rbt.Parameter_File>
/home/adria/Escritorio/rDock_2013.1_src/data/scripts/dock.prm

>  <Rbt.Receptor>
sah_rdock.prm

>  <SCORE>
-60.9355

>  <SCORE.INTER>
-16.5694

>  <SCORE.INTER.CONST>
1

>  <SCORE.INTER.POLAR>
0

>  <SCORE.INTER.REPUL>
0

>  <SCORE.INTER.ROT>
6

>  <SCORE.INTER.VDW>
-27.9694

>  <SCORE.INTER.norm>
-0.517794

>  <SCORE.INTRA>
-43.1209

>  <SCORE.INTRA.DIHEDRAL>
-84.1921

>  <SCORE.INTRA.DIHEDRAL.0>
98.0328

>  <SCORE.INTRA.POLAR>
0

>  <SCORE.INTRA.POLAR.0>
0

>  <SCORE.INTRA.REPUL>
0

>  <SCORE.INTRA.REPUL.0>
0

>  <SCORE.INTRA.VDW>
-1.02485

>  <SCORE.INTRA.VDW.0>
1.05034

>  <SCORE.INTRA.norm>
-1.34753

>  <SCORE.RESTR>
0

>  <SCORE.RESTR.CAVITY>
0

>  <SCORE.RESTR.norm>
0

>  <SCORE.SYSTEM>
-1.24522

>  <SCORE.SYSTEM.CONST>
0

>  <SCORE.SYSTEM.DIHEDRAL>
3.46394

>  <SCORE.SYSTEM.POLAR>
-3.62798

>  <SCORE.SYSTEM.VDW>
9.35795

>  <SCORE.SYSTEM.norm>
-0.038913

>  <SCORE.heavy>
32

>  <SCORE.norm>
-1.90424

$$$$
F5578-1758
  rDOCK(R)          3D
libRbt.so/2013.1/901 2013/11/27
 32 36  0  0  0  0  0  0  0  0999 V2000
  -14.9561   12.9906  -20.0638 C   0  0  0  0  0  0
  -14.4165   13.8422  -18.9314 C   0  0  0  0  0  0
  -15.4832   14.5087  -18.1080 C   0  0  0  0  0  0
  -16.3984   15.4456  -18.6029 C   0  0  0  0  0  0
  -17.3469   16.0385  -17.7565 C   0  0  0  0  0  0
  -17.3745   15.7277  -16.3883 C   0  0  0  0  0  0
  -16.4679   14.7764  -15.9263 C   0  0  0  0  0  0
  -15.5667   14.1467  -16.7717 C   0  0  0  0  0  0
  -18.2846   16.4356  -15.5325 N   0  0  0  0  0  0
  -19.0816   15.7062  -14.7183 N   0  0  0  0  0  0
  -20.0059   16.5548  -14.2967 C   0  0  0  0  0  0
  -19.8671   17.8862  -14.7947 C   0  0  0  0  0  0
  -20.9906   18.8538  -14.4205 C   0  0  0  0  0  0
  -22.0676   18.7469  -14.9678 O   0  0  0  0  0  0
  -20.8017   19.9209  -13.5211 N   0  0  0  0  0  0
  -21.9380   20.5534  -13.0064 C   0  0  0  0  0  0
  -21.8726   21.9714  -12.5461 C   0  0  0  0  0  0
  -20.6051   22.2352  -11.8452 C   0  0  0  0  0  0
  -19.5605   21.3942  -11.9458 C   0  0  0  0  0  0
  -19.5511   20.1163  -12.7787 C   0  0  0  0  0  0
  -20.6739   23.4721  -11.0695 C   0  0  0  0  0  0
  -19.5010   24.1998  -10.8483 C   0  0  0  0  0  0
  -19.5526   25.4219  -10.1826 C   0  0  0  0  0  0
  -20.7798   25.9332   -9.7618 C   0  0  0  0  0  0
  -21.9605   25.2481  -10.0493 C   0  0  0  0  0  0
  -21.9104   24.0229  -10.7140 C   0  0  0  0  0  0
  -18.6001   17.8020  -15.4505 C   0  0  0  0  0  0
  -17.7025   18.7603  -15.9756 N   0  0  0  0  0  0
  -16.4774   18.4798  -16.5783 C   0  0  0  0  0  0
  -15.7873   19.6533  -16.8003 C   0  0  0  0  0  0
  -16.5844   20.6941  -16.2971 C   0  0  0  0  0  0
  -17.8295   20.1444  -16.0537 C   0  0  0  0  0  0
  1  2  1  0  0  0
  2  3  1  0  0  0
  3  4  2  0  0  0
  3  8  1  0  0  0
  4  5  1  0  0  0
  5  6  2  0  0  0
  6  7  1  0  0  0
  6  9  1  0  0  0
  7  8  2  0  0  0
  9 10  1  0  0  0
  9 27  1  0  0  0
 10 11  2  0  0  0
 11 12  1  0  0  0
 12 13  1  0  0  0
 12 27  2  0  0  0
 13 14  2  0  0  0
 13 15  1  0  0  0
 15 16  1  0  0  0
 15 20  1  0  0  0
 16 17  1  0  0  0
 17 18  1  0  0  0
 18 19  2  0  0  0
 18 21  1  0  0  0
 19 20  1  0  0  0
 21 22  2  0  0  0
 21 26  1  0  0  0
 22 23  1  0  0  0
 23 24  2  0  0  0
 24 25  1  0  0  0
 25 26  2  0  0  0
 27 28  1  0  0  0
 28 29  1  0  0  0
 28 32  1  0  0  0
 29 30  2  0  0  0
 30 31  1  0  0  0
 31 32  2  0  0  0
M  END
>  <CHROM.0>
-176.08137818,-70.35745505,-167.87307564,-59.83472512,168.25356797,-58.08629148
-36.39172940,-157.95312288

>  <CHROM.1>
-62.24568771,129.46221408,-73.64836181,-165.48495924,-151.30278430,-0.81664670
-18.75824274,19.07807310,-14.61410184,-1.11036555,0.44560431,0.44540625

>  <Name>
F5578-1758

>  <RI>
2.21822e+07

>  <Rbt.Current_Directory>
/home/adria/Escritorio/rDock_CMTR_LC/2pxcA_model/inputs_sah

>  <Rbt.Executable>
rbdock ($Id: //depot/dev/client3/rdock/2013.1/src/exe/rbdock.cxx#4 $)

>  <Rbt.Library>
libRbt.so (2013.1, Build901 2013/11/27)

>  <Rbt.Parameter_File>
/home/adria/Escritorio/rDock_2013.1_src/data/scripts/dock.prm

>  <Rbt.Receptor>
sah_rdock.prm

>  <SCORE>
-56.3351

>  <SCORE.INTER>
-15.951

>  <SCORE.INTER.CONST>
1

>  <SCORE.INTER.POLAR>
0

>  <SCORE.INTER.REPUL>
0

>  <SCORE.INTER.ROT>
6

>  <SCORE.INTER.VDW>
-27.351

>  <SCORE.INTER.norm>
-0.498467

>  <SCORE.INTRA>
-38.4934

>  <SCORE.INTRA.DIHEDRAL>
-77.2326

>  <SCORE.INTRA.DIHEDRAL.0>
98.0328

>  <SCORE.INTRA.POLAR>
0

>  <SCORE.INTRA.POLAR.0>
0

>  <SCORE.INTRA.REPUL>
0

>  <SCORE.INTRA.REPUL.0>
0

>  <SCORE.INTRA.VDW>
0.122879

>  <SCORE.INTRA.VDW.0>
1.05034

>  <SCORE.INTRA.norm>
-1.20292

>  <SCORE.RESTR>
0

>  <SCORE.RESTR.CAVITY>
0

>  <SCORE.RESTR.norm>
0

>  <SCORE.SYSTEM>
-1.8907

>  <SCORE.SYSTEM.CONST>
0

>  <SCORE.SYSTEM.DIHEDRAL>
3.49728

>  <SCORE.SYSTEM.POLAR>
-3.83176

>  <SCORE.SYSTEM.REPUL>
0.0334791

>  <SCORE.SYSTEM.VDW>
9.22126

>  <SCORE.SYSTEM.norm>
-0.0590844

>  <SCORE.heavy>
32

>  <SCORE.norm>
-1.76047

$$$$
