F2359-0551
  rDOCK(R)          3D
libRbt.so/2013.1/901 2013/11/27
 32 36  0  0  0  0  0  0  0  0999 V2000
  -19.5432   20.9310  -14.5623 C   0  0  0  0  0  0
  -20.6031   21.2829  -13.5669 C   0  0  0  0  0  0
  -21.2465   20.0649  -12.6197 C   0  0  0  0  0  0
  -21.5548   18.7980  -13.1805 N   0  0  0  0  0  0
  -21.1107   18.1492  -14.3841 C   0  0  0  0  0  0
  -22.0152   18.0035  -15.4319 C   0  0  0  0  0  0
  -23.3499   18.2988  -15.3260 N   0  0  0  0  0  0
  -24.0659   18.2191  -16.4642 C   0  0  0  0  0  0
  -23.4878   17.8478  -17.6566 C   0  0  0  0  0  0
  -22.1808   17.5171  -17.7506 N   0  0  0  0  0  0
  -21.4269   17.5925  -16.6445 C   0  0  0  0  0  0
  -20.1300   17.3285  -16.7871 N   0  0  0  0  0  0
  -19.3428   17.4481  -15.7222 C   0  0  0  0  0  0
  -17.9986   17.3761  -15.9599 N   0  0  0  0  0  0
  -17.1989   16.6768  -16.9627 C   0  0  0  0  0  0
  -17.1078   15.1630  -16.8723 C   0  0  0  0  0  0
  -17.6776   14.5499  -15.7143 C   0  0  0  0  0  0
  -17.1585   13.3183  -15.5906 C   0  0  0  0  0  0
  -15.7668   12.9135  -16.5736 C   0  0  0  0  0  0
  -14.5307   11.9607  -15.7672 O   0  0  0  0  0  0
  -15.0621   11.5763  -13.9805 C   0  0  0  0  0  0
  -16.9541   12.4668  -13.9335 O   0  0  0  0  0  0
  -15.6639   13.2373  -17.8512 C   0  0  0  0  0  0
  -16.3680   14.4271  -17.9841 C   0  0  0  0  0  0
  -19.8169   17.8102  -14.5348 N   0  0  0  0  0  0
  -21.9515   20.6452  -11.1735 C   0  0  0  0  0  0
  -22.2343   22.6664  -11.0525 C   0  0  0  0  0  0
  -21.6603   23.6787  -12.1861 C   0  0  0  0  0  0
  -21.3865   25.2965  -11.6439 Cl  0  0  0  0  0  0
  -20.7847   22.9683  -13.3213 C   0  0  0  0  0  0
  -21.9812   18.1316  -12.5439 H   0  0  0  0  0  0
  -17.4999   17.9900  -15.3288 H   0  0  0  0  0  0
  1  2  1  0  0  0
  2  3  2  0  0  0
  2 30  1  0  0  0
  3  4  1  0  0  0
  3 26  1  0  0  0
  4  5  1  0  0  0
  4 31  1  0  0  0
  5  6  2  0  0  0
  5 25  1  0  0  0
  6  7  1  0  0  0
  6 11  1  0  0  0
  7  8  2  0  0  0
  8  9  1  0  0  0
  9 10  2  0  0  0
 10 11  1  0  0  0
 11 12  2  0  0  0
 12 13  1  0  0  0
 13 14  1  0  0  0
 13 25  2  0  0  0
 14 15  1  0  0  0
 14 32  1  0  0  0
 15 16  1  0  0  0
 16 17  2  0  0  0
 16 24  1  0  0  0
 17 18  1  0  0  0
 18 19  2  0  0  0
 18 22  1  0  0  0
 19 20  1  0  0  0
 19 23  1  0  0  0
 20 21  1  0  0  0
 21 22  1  0  0  0
 23 24  2  0  0  0
 26 27  2  0  0  0
 27 28  1  0  0  0
 28 29  1  0  0  0
 28 30  2  0  0  0
M  END
>  <CHROM.0>
-177.65503875,67.90750097,-164.64088655,67.20797470,-31.90156650,-65.16129894
82.03259609,-158.69596879

>  <CHROM.1>
19.52487829,-109.09191496,-30.12692078,-70.14550160,-7.51766316,-19.68102072
17.94179016,-14.86041201,-2.14914281,0.51532435,-2.47243264

>  <Name>
F2359-0551

>  <RI>
1.33308e+07

>  <Rbt.Current_Directory>
/home/adria/Escritorio/rDock_CMTR_LC/2pxcA_model/inputs_sah

>  <Rbt.Executable>
rbdock ($Id: //depot/dev/client3/rdock/2013.1/src/exe/rbdock.cxx#4 $)

>  <Rbt.Library>
libRbt.so (2013.1, Build901 2013/11/27)

>  <Rbt.Parameter_File>
/home/adria/Escritorio/rDock_2013.1_src/data/scripts/dock.prm

>  <Rbt.Receptor>
sah_rdock.prm

>  <SCORE>
-261.656

>  <SCORE.INTER>
-9.38142

>  <SCORE.INTER.CONST>
1

>  <SCORE.INTER.POLAR>
-0.285094

>  <SCORE.INTER.REPUL>
0.451154

>  <SCORE.INTER.ROT>
5

>  <SCORE.INTER.VDW>
-21.0679

>  <SCORE.INTER.norm>
-0.312714

>  <SCORE.INTRA>
-246.242

>  <SCORE.INTRA.DIHEDRAL>
8.73066

>  <SCORE.INTRA.DIHEDRAL.0>
9.58136

>  <SCORE.INTRA.POLAR>
0

>  <SCORE.INTRA.POLAR.0>
0

>  <SCORE.INTRA.REPUL>
0

>  <SCORE.INTRA.REPUL.0>
0

>  <SCORE.INTRA.VDW>
-250.607

>  <SCORE.INTRA.VDW.0>
248.381

>  <SCORE.INTRA.norm>
-8.20806

>  <SCORE.RESTR>
0.364236

>  <SCORE.RESTR.CAVITY>
0.364236

>  <SCORE.RESTR.norm>
0.0121412

>  <SCORE.SYSTEM>
-6.39664

>  <SCORE.SYSTEM.CONST>
0

>  <SCORE.SYSTEM.DIHEDRAL>
6.14778

>  <SCORE.SYSTEM.POLAR>
-3.57028

>  <SCORE.SYSTEM.VDW>
2.66841

>  <SCORE.SYSTEM.norm>
-0.213221

>  <SCORE.heavy>
30

>  <SCORE.norm>
-8.72186

$$$$
F2359-0551
  rDOCK(R)          3D
libRbt.so/2013.1/901 2013/11/27
 32 36  0  0  0  0  0  0  0  0999 V2000
  -18.7459   12.9156  -16.8317 C   0  0  0  0  0  0
  -17.7072   13.9562  -17.1085 C   0  0  0  0  0  0
  -17.5243   15.2123  -16.0206 C   0  0  0  0  0  0
  -18.6585   15.8457  -15.4488 N   0  0  0  0  0  0
  -18.7998   17.0668  -14.7031 C   0  0  0  0  0  0
  -18.2549   18.2335  -15.2313 C   0  0  0  0  0  0
  -17.4532   18.2586  -16.3432 N   0  0  0  0  0  0
  -17.1072   19.4790  -16.7961 C   0  0  0  0  0  0
  -17.5254   20.6286  -16.1657 C   0  0  0  0  0  0
  -18.2814   20.6011  -15.0459 N   0  0  0  0  0  0
  -18.6587   19.4077  -14.5652 C   0  0  0  0  0  0
  -19.4608   19.4187  -13.5028 N   0  0  0  0  0  0
  -19.8995   18.2546  -13.0337 C   0  0  0  0  0  0
  -20.8807   18.3229  -12.0844 N   0  0  0  0  0  0
  -21.5372   19.4381  -11.4065 C   0  0  0  0  0  0
  -21.3150   20.8366  -11.9569 C   0  0  0  0  0  0
  -20.1032   21.4935  -11.5809 C   0  0  0  0  0  0
  -20.2553   22.8108  -11.7889 C   0  0  0  0  0  0
  -21.8710   23.4090  -12.1031 C   0  0  0  0  0  0
  -22.2670   24.9383  -11.3348 O   0  0  0  0  0  0
  -20.7704   25.5843  -10.3523 C   0  0  0  0  0  0
  -19.3529   24.1068  -10.7796 O   0  0  0  0  0  0
  -22.7243   22.8008  -12.9093 C   0  0  0  0  0  0
  -22.4203   21.4493  -12.8100 C   0  0  0  0  0  0
  -19.5521   17.0977  -13.5875 N   0  0  0  0  0  0
  -15.9833   15.9496  -16.1047 C   0  0  0  0  0  0
  -14.8323   15.4582  -17.7213 C   0  0  0  0  0  0
  -15.2808   14.3006  -18.7691 C   0  0  0  0  0  0
  -13.9808   13.5599  -19.6337 Cl  0  0  0  0  0  0
  -16.6238   13.5306  -18.3650 C   0  0  0  0  0  0
  -19.5577   15.5238  -15.7938 H   0  0  0  0  0  0
  -21.2346   17.3968  -11.8820 H   0  0  0  0  0  0
  1  2  1  0  0  0
  2  3  2  0  0  0
  2 30  1  0  0  0
  3  4  1  0  0  0
  3 26  1  0  0  0
  4  5  1  0  0  0
  4 31  1  0  0  0
  5  6  2  0  0  0
  5 25  1  0  0  0
  6  7  1  0  0  0
  6 11  1  0  0  0
  7  8  2  0  0  0
  8  9  1  0  0  0
  9 10  2  0  0  0
 10 11  1  0  0  0
 11 12  2  0  0  0
 12 13  1  0  0  0
 13 14  1  0  0  0
 13 25  2  0  0  0
 14 15  1  0  0  0
 14 32  1  0  0  0
 15 16  1  0  0  0
 16 17  2  0  0  0
 16 24  1  0  0  0
 17 18  1  0  0  0
 18 19  2  0  0  0
 18 22  1  0  0  0
 19 20  1  0  0  0
 19 23  1  0  0  0
 20 21  1  0  0  0
 21 22  1  0  0  0
 23 24  2  0  0  0
 26 27  2  0  0  0
 27 28  1  0  0  0
 28 29  1  0  0  0
 28 30  2  0  0  0
M  END
>  <CHROM.0>
-65.04527646,-166.19981809,-48.34739646,61.00066613,-31.26494350,-179.08075393
83.70579222,-159.66337046

>  <CHROM.1>
-167.06412208,51.34667726,-3.18949983,12.13039966,-81.24591382,-18.70837278
18.59459504,-14.68422611,0.96924654,-0.66691138,-2.90176788

>  <Name>
F2359-0551

>  <RI>
1.33308e+07

>  <Rbt.Current_Directory>
/home/adria/Escritorio/rDock_CMTR_LC/2pxcA_model/inputs_sah

>  <Rbt.Executable>
rbdock ($Id: //depot/dev/client3/rdock/2013.1/src/exe/rbdock.cxx#4 $)

>  <Rbt.Library>
libRbt.so (2013.1, Build901 2013/11/27)

>  <Rbt.Parameter_File>
/home/adria/Escritorio/rDock_2013.1_src/data/scripts/dock.prm

>  <Rbt.Receptor>
sah_rdock.prm

>  <SCORE>
-273.273

>  <SCORE.INTER>
-18.1833

>  <SCORE.INTER.CONST>
1

>  <SCORE.INTER.POLAR>
-0.919858

>  <SCORE.INTER.REPUL>
0.00405552

>  <SCORE.INTER.ROT>
5

>  <SCORE.INTER.VDW>
-25.4761

>  <SCORE.INTER.norm>
-0.606111

>  <SCORE.INTRA>
-248.843

>  <SCORE.INTRA.DIHEDRAL>
2.99212

>  <SCORE.INTRA.DIHEDRAL.0>
9.58136

>  <SCORE.INTRA.POLAR>
0

>  <SCORE.INTRA.POLAR.0>
0

>  <SCORE.INTRA.REPUL>
0

>  <SCORE.INTRA.REPUL.0>
0

>  <SCORE.INTRA.VDW>
-250.34

>  <SCORE.INTRA.VDW.0>
248.381

>  <SCORE.INTRA.norm>
-8.29478

>  <SCORE.RESTR>
0

>  <SCORE.RESTR.CAVITY>
0

>  <SCORE.RESTR.norm>
0

>  <SCORE.SYSTEM>
-6.24661

>  <SCORE.SYSTEM.CONST>
0

>  <SCORE.SYSTEM.DIHEDRAL>
6.51547

>  <SCORE.SYSTEM.POLAR>
-3.66106

>  <SCORE.SYSTEM.VDW>
2.94327

>  <SCORE.SYSTEM.norm>
-0.20822

>  <SCORE.heavy>
30

>  <SCORE.norm>
-9.10911

$$$$
F2359-0551
  rDOCK(R)          3D
libRbt.so/2013.1/901 2013/11/27
 32 36  0  0  0  0  0  0  0  0999 V2000
  -19.1115   20.1640  -17.3426 C   0  0  0  0  0  0
  -18.3147   18.9083  -17.1796 C   0  0  0  0  0  0
  -19.1294   17.4521  -17.0770 C   0  0  0  0  0  0
  -20.3155   17.3389  -16.3058 N   0  0  0  0  0  0
  -20.9437   18.2382  -15.3765 C   0  0  0  0  0  0
  -22.2293   17.9423  -14.9327 C   0  0  0  0  0  0
  -22.9944   16.9295  -15.4509 N   0  0  0  0  0  0
  -24.1668   16.6962  -14.8301 C   0  0  0  0  0  0
  -24.5730   17.4446  -13.7490 C   0  0  0  0  0  0
  -23.8365   18.4693  -13.2654 N   0  0  0  0  0  0
  -22.6565   18.7309  -13.8460 C   0  0  0  0  0  0
  -21.9250   19.7002  -13.3007 N   0  0  0  0  0  0
  -20.7250   19.9487  -13.8164 C   0  0  0  0  0  0
  -19.9290   20.7977  -13.0994 N   0  0  0  0  0  0
  -20.1248   21.5358  -11.8540 C   0  0  0  0  0  0
  -20.7704   22.9087  -11.9336 C   0  0  0  0  0  0
  -19.9813   24.0193  -11.5031 C   0  0  0  0  0  0
  -20.8049   25.0475  -11.2459 C   0  0  0  0  0  0
  -22.5228   24.7186  -11.1580 C   0  0  0  0  0  0
  -23.3857   25.5721   -9.8881 O   0  0  0  0  0  0
  -22.1895   26.6968   -8.9255 C   0  0  0  0  0  0
  -20.4108   26.3681   -9.9756 O   0  0  0  0  0  0
  -23.1552   23.9371  -12.0166 C   0  0  0  0  0  0
  -22.2185   22.9877  -12.4044 C   0  0  0  0  0  0
  -20.2514   19.2677  -14.8546 N   0  0  0  0  0  0
  -18.1558   16.1109  -17.4995 C   0  0  0  0  0  0
  -16.1480   16.4637  -17.6547 C   0  0  0  0  0  0
  -15.5344   17.9649  -17.5588 C   0  0  0  0  0  0
  -14.0099   18.1782  -18.3440 Cl  0  0  0  0  0  0
  -16.6350   19.1200  -17.4396 C   0  0  0  0  0  0
  -20.9606   16.6128  -16.6022 H   0  0  0  0  0  0
  -19.0101   20.8520  -13.5197 H   0  0  0  0  0  0
  1  2  1  0  0  0
  2  3  2  0  0  0
  2 30  1  0  0  0
  3  4  1  0  0  0
  3 26  1  0  0  0
  4  5  1  0  0  0
  4 31  1  0  0  0
  5  6  2  0  0  0
  5 25  1  0  0  0
  6  7  1  0  0  0
  6 11  1  0  0  0
  7  8  2  0  0  0
  8  9  1  0  0  0
  9 10  2  0  0  0
 10 11  1  0  0  0
 11 12  2  0  0  0
 12 13  1  0  0  0
 13 14  1  0  0  0
 13 25  2  0  0  0
 14 15  1  0  0  0
 14 32  1  0  0  0
 15 16  1  0  0  0
 16 17  2  0  0  0
 16 24  1  0  0  0
 17 18  1  0  0  0
 18 19  2  0  0  0
 18 22  1  0  0  0
 19 20  1  0  0  0
 19 23  1  0  0  0
 20 21  1  0  0  0
 21 22  1  0  0  0
 23 24  2  0  0  0
 26 27  2  0  0  0
 27 28  1  0  0  0
 28 29  1  0  0  0
 28 30  2  0  0  0
M  END
>  <CHROM.0>
-63.67313841,-69.55042145,-44.04055225,65.24650331,168.02083474,177.86911575
-36.25846473,-161.49972849

>  <CHROM.1>
-9.62083838,169.49930367,-1.19029291,-86.99217873,-117.48554755,-20.25230804
20.27860681,-14.29160897,-1.05088472,0.37108120,0.56928208

>  <Name>
F2359-0551

>  <RI>
1.33308e+07

>  <Rbt.Current_Directory>
/home/adria/Escritorio/rDock_CMTR_LC/2pxcA_model/inputs_sah

>  <Rbt.Executable>
rbdock ($Id: //depot/dev/client3/rdock/2013.1/src/exe/rbdock.cxx#4 $)

>  <Rbt.Library>
libRbt.so (2013.1, Build901 2013/11/27)

>  <Rbt.Parameter_File>
/home/adria/Escritorio/rDock_2013.1_src/data/scripts/dock.prm

>  <Rbt.Receptor>
sah_rdock.prm

>  <SCORE>
-270.78

>  <SCORE.INTER>
-16.4125

>  <SCORE.INTER.CONST>
1

>  <SCORE.INTER.POLAR>
-1.64117

>  <SCORE.INTER.REPUL>
0.0548522

>  <SCORE.INTER.ROT>
5

>  <SCORE.INTER.VDW>
-21.5068

>  <SCORE.INTER.norm>
-0.547084

>  <SCORE.INTRA>
-251.77

>  <SCORE.INTRA.DIHEDRAL>
-2.88886

>  <SCORE.INTRA.DIHEDRAL.0>
9.58136

>  <SCORE.INTRA.POLAR>
-0.087735

>  <SCORE.INTRA.POLAR.0>
0

>  <SCORE.INTRA.REPUL>
0

>  <SCORE.INTRA.REPUL.0>
0

>  <SCORE.INTRA.VDW>
-250.027

>  <SCORE.INTRA.VDW.0>
248.381

>  <SCORE.INTRA.norm>
-8.39232

>  <SCORE.RESTR>
0

>  <SCORE.RESTR.CAVITY>
0

>  <SCORE.RESTR.norm>
0

>  <SCORE.SYSTEM>
-2.59742

>  <SCORE.SYSTEM.CONST>
0

>  <SCORE.SYSTEM.DIHEDRAL>
3.63537

>  <SCORE.SYSTEM.POLAR>
-3.89885

>  <SCORE.SYSTEM.REPUL>
0.0318026

>  <SCORE.SYSTEM.VDW>
8.68197

>  <SCORE.SYSTEM.norm>
-0.0865808

>  <SCORE.heavy>
30

>  <SCORE.norm>
-9.02599

$$$$
F2359-0551
  rDOCK(R)          3D
libRbt.so/2013.1/901 2013/11/27
 32 36  0  0  0  0  0  0  0  0999 V2000
  -19.8707   18.8813  -12.5469 C   0  0  0  0  0  0
  -19.4059   19.5294  -13.8127 C   0  0  0  0  0  0
  -19.8784   21.1021  -14.1259 C   0  0  0  0  0  0
  -21.2075   21.5248  -13.8624 N   0  0  0  0  0  0
  -22.4018   20.7897  -13.5456 C   0  0  0  0  0  0
  -22.5448   19.5037  -14.0581 C   0  0  0  0  0  0
  -21.6880   18.9557  -14.9775 N   0  0  0  0  0  0
  -21.8947   17.6596  -15.2804 C   0  0  0  0  0  0
  -22.9173   16.9382  -14.7078 C   0  0  0  0  0  0
  -23.7862   17.4914  -13.8330 N   0  0  0  0  0  0
  -23.6121   18.7769  -13.4939 C   0  0  0  0  0  0
  -24.4418   19.2699  -12.5771 N   0  0  0  0  0  0
  -24.2624   20.5249  -12.1762 C   0  0  0  0  0  0
  -24.9946   20.9174  -11.0906 N   0  0  0  0  0  0
  -25.5039   22.2124  -10.6460 C   0  0  0  0  0  0
  -24.5462   23.3916  -10.6431 C   0  0  0  0  0  0
  -23.8396   23.6527  -11.8572 C   0  0  0  0  0  0
  -22.7750   24.4179  -11.5696 C   0  0  0  0  0  0
  -22.3329   24.6063   -9.8855 C   0  0  0  0  0  0
  -20.6075   24.5845   -9.5563 O   0  0  0  0  0  0
  -19.6336   24.3871  -11.1795 C   0  0  0  0  0  0
  -21.1930   24.3714  -12.5734 O   0  0  0  0  0  0
  -23.2159   24.8154   -8.9241 C   0  0  0  0  0  0
  -24.3686   24.1608   -9.3386 C   0  0  0  0  0  0
  -23.2942   21.2891  -12.6705 N   0  0  0  0  0  0
  -18.8404   21.9056  -15.2224 C   0  0  0  0  0  0
  -17.5007   20.7315  -16.2256 C   0  0  0  0  0  0
  -17.3113   19.1574  -15.8714 C   0  0  0  0  0  0
  -15.7691   18.4991  -16.2891 Cl  0  0  0  0  0  0
  -18.1770   18.6541  -14.6235 C   0  0  0  0  0  0
  -21.3153   22.5090  -13.6367 H   0  0  0  0  0  0
  -25.2653   20.1107  -10.5431 H   0  0  0  0  0  0
  1  2  1  0  0  0
  2  3  2  0  0  0
  2 30  1  0  0  0
  3  4  1  0  0  0
  3 26  1  0  0  0
  4  5  1  0  0  0
  4 31  1  0  0  0
  5  6  2  0  0  0
  5 25  1  0  0  0
  6  7  1  0  0  0
  6 11  1  0  0  0
  7  8  2  0  0  0
  8  9  1  0  0  0
  9 10  2  0  0  0
 10 11  1  0  0  0
 11 12  2  0  0  0
 12 13  1  0  0  0
 13 14  1  0  0  0
 13 25  2  0  0  0
 14 15  1  0  0  0
 14 32  1  0  0  0
 15 16  1  0  0  0
 16 17  2  0  0  0
 16 24  1  0  0  0
 17 18  1  0  0  0
 18 19  2  0  0  0
 18 22  1  0  0  0
 19 20  1  0  0  0
 19 23  1  0  0  0
 20 21  1  0  0  0
 21 22  1  0  0  0
 23 24  2  0  0  0
 26 27  2  0  0  0
 27 28  1  0  0  0
 28 29  1  0  0  0
 28 30  2  0  0  0
M  END
>  <CHROM.0>
-60.00980406,-167.41445686,107.91685789,64.55603402,-32.11662484,57.08273663
-36.38992483,-162.17173463

>  <CHROM.1>
-11.90816683,-30.44862723,-152.45908211,-47.78324327,52.37596869,-21.41742674
20.98219439,-13.04799460,0.83362973,-0.32841988,-2.59321467

>  <Name>
F2359-0551

>  <RI>
1.33308e+07

>  <Rbt.Current_Directory>
/home/adria/Escritorio/rDock_CMTR_LC/2pxcA_model/inputs_sah

>  <Rbt.Executable>
rbdock ($Id: //depot/dev/client3/rdock/2013.1/src/exe/rbdock.cxx#4 $)

>  <Rbt.Library>
libRbt.so (2013.1, Build901 2013/11/27)

>  <Rbt.Parameter_File>
/home/adria/Escritorio/rDock_2013.1_src/data/scripts/dock.prm

>  <Rbt.Receptor>
sah_rdock.prm

>  <SCORE>
-262.367

>  <SCORE.INTER>
-4.37379

>  <SCORE.INTER.CONST>
1

>  <SCORE.INTER.POLAR>
0

>  <SCORE.INTER.REPUL>
0

>  <SCORE.INTER.ROT>
5

>  <SCORE.INTER.VDW>
-14.7738

>  <SCORE.INTER.norm>
-0.145793

>  <SCORE.INTRA>
-251.823

>  <SCORE.INTRA.DIHEDRAL>
3.27588

>  <SCORE.INTRA.DIHEDRAL.0>
9.58136

>  <SCORE.INTRA.POLAR>
-1

>  <SCORE.INTRA.POLAR.0>
0

>  <SCORE.INTRA.REPUL>
0

>  <SCORE.INTRA.REPUL.0>
0

>  <SCORE.INTRA.VDW>
-250.061

>  <SCORE.INTRA.VDW.0>
248.381

>  <SCORE.INTRA.norm>
-8.39409

>  <SCORE.RESTR>
0

>  <SCORE.RESTR.CAVITY>
0

>  <SCORE.RESTR.norm>
0

>  <SCORE.SYSTEM>
-6.17005

>  <SCORE.SYSTEM.CONST>
0

>  <SCORE.SYSTEM.DIHEDRAL>
8.98896

>  <SCORE.SYSTEM.POLAR>
-4.25656

>  <SCORE.SYSTEM.VDW>
3.80776

>  <SCORE.SYSTEM.norm>
-0.205668

>  <SCORE.heavy>
30

>  <SCORE.norm>
-8.74555

$$$$
F2359-0551
  rDOCK(R)          3D
libRbt.so/2013.1/901 2013/11/27
 32 36  0  0  0  0  0  0  0  0999 V2000
  -22.9053   17.8216  -13.0523 C   0  0  0  0  0  0
  -23.4812   18.3145  -14.3421 C   0  0  0  0  0  0
  -22.8423   17.7374  -15.7751 C   0  0  0  0  0  0
  -21.4399   17.5867  -15.9338 N   0  0  0  0  0  0
  -20.3284   18.1526  -15.2188 C   0  0  0  0  0  0
  -19.0448   17.7189  -15.5370 C   0  0  0  0  0  0
  -18.7880   16.6687  -16.3802 N   0  0  0  0  0  0
  -17.4926   16.4533  -16.6799 C   0  0  0  0  0  0
  -16.4899   17.2362  -16.1550 C   0  0  0  0  0  0
  -16.7418   18.2449  -15.2916 N   0  0  0  0  0  0
  -18.0184   18.5025  -14.9730 C   0  0  0  0  0  0
  -18.2357   19.5466  -14.1764 N   0  0  0  0  0  0
  -19.4934   19.8647  -13.8851 C   0  0  0  0  0  0
  -19.6764   21.0586  -13.2451 N   0  0  0  0  0  0
  -20.2099   22.3492  -13.6741 C   0  0  0  0  0  0
  -21.3245   22.9692  -12.8488 C   0  0  0  0  0  0
  -21.5564   24.3681  -13.0242 C   0  0  0  0  0  0
  -22.2469   24.8174  -11.9645 C   0  0  0  0  0  0
  -22.3825   23.7667  -10.5701 C   0  0  0  0  0  0
  -22.2444   24.5665   -9.0122 O   0  0  0  0  0  0
  -22.0073   26.4391   -9.2564 C   0  0  0  0  0  0
  -22.1122   26.5796  -11.3406 O   0  0  0  0  0  0
  -22.6347   22.4721  -10.6607 C   0  0  0  0  0  0
  -22.0620   22.0718  -11.8611 C   0  0  0  0  0  0
  -20.5219   19.1678  -14.3565 N   0  0  0  0  0  0
  -23.9240   17.8770  -17.0926 C   0  0  0  0  0  0
  -25.5763   19.0415  -16.7872 C   0  0  0  0  0  0
  -25.9326   19.6522  -15.3245 C   0  0  0  0  0  0
  -27.6041   20.0129  -15.0753 Cl  0  0  0  0  0  0
  -24.9479   19.1791  -14.1555 C   0  0  0  0  0  0
  -21.1474   16.7878  -16.4882 H   0  0  0  0  0  0
  -19.4354   20.9697  -12.2664 H   0  0  0  0  0  0
  1  2  1  0  0  0
  2  3  2  0  0  0
  2 30  1  0  0  0
  3  4  1  0  0  0
  3 26  1  0  0  0
  4  5  1  0  0  0
  4 31  1  0  0  0
  5  6  2  0  0  0
  5 25  1  0  0  0
  6  7  1  0  0  0
  6 11  1  0  0  0
  7  8  2  0  0  0
  8  9  1  0  0  0
  9 10  2  0  0  0
 10 11  1  0  0  0
 11 12  2  0  0  0
 12 13  1  0  0  0
 13 14  1  0  0  0
 13 25  2  0  0  0
 14 15  1  0  0  0
 14 32  1  0  0  0
 15 16  1  0  0  0
 16 17  2  0  0  0
 16 24  1  0  0  0
 17 18  1  0  0  0
 18 19  2  0  0  0
 18 22  1  0  0  0
 19 20  1  0  0  0
 19 23  1  0  0  0
 20 21  1  0  0  0
 21 22  1  0  0  0
 23 24  2  0  0  0
 26 27  2  0  0  0
 27 28  1  0  0  0
 28 29  1  0  0  0
 28 30  2  0  0  0
M  END
>  <CHROM.0>
-60.74284312,-74.96556063,109.83206961,64.04654040,167.81355941,-60.42691373
-38.12600013,-158.67178692

>  <CHROM.1>
-18.89399277,174.37902744,107.11113026,127.05784951,161.76008698,-21.71732600
20.37984058,-13.92716496,1.20426783,0.07621666,-2.50895464

>  <Name>
F2359-0551

>  <RI>
1.33308e+07

>  <Rbt.Current_Directory>
/home/adria/Escritorio/rDock_CMTR_LC/2pxcA_model/inputs_sah

>  <Rbt.Executable>
rbdock ($Id: //depot/dev/client3/rdock/2013.1/src/exe/rbdock.cxx#4 $)

>  <Rbt.Library>
libRbt.so (2013.1, Build901 2013/11/27)

>  <Rbt.Parameter_File>
/home/adria/Escritorio/rDock_2013.1_src/data/scripts/dock.prm

>  <Rbt.Receptor>
sah_rdock.prm

>  <SCORE>
-260.625

>  <SCORE.INTER>
-12.8363

>  <SCORE.INTER.CONST>
1

>  <SCORE.INTER.POLAR>
-1.54059

>  <SCORE.INTER.REPUL>
0.134679

>  <SCORE.INTER.ROT>
5

>  <SCORE.INTER.VDW>
-18.6717

>  <SCORE.INTER.norm>
-0.427878

>  <SCORE.INTRA>
-245.839

>  <SCORE.INTRA.DIHEDRAL>
9.96398

>  <SCORE.INTRA.DIHEDRAL.0>
9.58136

>  <SCORE.INTRA.POLAR>
-0.0802697

>  <SCORE.INTRA.POLAR.0>
0

>  <SCORE.INTRA.REPUL>
0

>  <SCORE.INTRA.REPUL.0>
0

>  <SCORE.INTRA.VDW>
-250.548

>  <SCORE.INTRA.VDW.0>
248.381

>  <SCORE.INTRA.norm>
-8.19462

>  <SCORE.RESTR>
0.537164

>  <SCORE.RESTR.CAVITY>
0.537164

>  <SCORE.RESTR.norm>
0.0179055

>  <SCORE.SYSTEM>
-2.48717

>  <SCORE.SYSTEM.CONST>
0

>  <SCORE.SYSTEM.DIHEDRAL>
6.88504

>  <SCORE.SYSTEM.POLAR>
-4.53218

>  <SCORE.SYSTEM.REPUL>
0.0418551

>  <SCORE.SYSTEM.VDW>
9.27045

>  <SCORE.SYSTEM.norm>
-0.0829055

>  <SCORE.heavy>
30

>  <SCORE.norm>
-8.6875

$$$$
F2359-0551
  rDOCK(R)          3D
libRbt.so/2013.1/901 2013/11/27
 32 36  0  0  0  0  0  0  0  0999 V2000
  -19.9513   21.4258  -14.3920 C   0  0  0  0  0  0
  -20.9915   21.7753  -13.3751 C   0  0  0  0  0  0
  -21.9552   20.5532  -12.7647 C   0  0  0  0  0  0
  -22.4777   19.5479  -13.6197 N   0  0  0  0  0  0
  -22.3469   19.3305  -15.0348 C   0  0  0  0  0  0
  -23.4903   19.3998  -15.8252 C   0  0  0  0  0  0
  -24.7583   19.5052  -15.3143 N   0  0  0  0  0  0
  -25.7456   19.6840  -16.2129 C   0  0  0  0  0  0
  -25.4908   19.7416  -17.5641 C   0  0  0  0  0  0
  -24.2454   19.5962  -18.0684 N   0  0  0  0  0  0
  -23.2298   19.4267  -17.2097 C   0  0  0  0  0  0
  -22.0088   19.3578  -17.7356 N   0  0  0  0  0  0
  -20.9733   19.2460  -16.9092 C   0  0  0  0  0  0
  -19.7373   19.3924  -17.4745 N   0  0  0  0  0  0
  -18.4039   19.6048  -16.9168 C   0  0  0  0  0  0
  -17.6012   18.3827  -16.5044 C   0  0  0  0  0  0
  -16.1958   18.4169  -16.7595 C   0  0  0  0  0  0
  -15.7312   17.1579  -16.7321 C   0  0  0  0  0  0
  -16.8996   15.8534  -16.7467 C   0  0  0  0  0  0
  -16.4671   14.4705  -17.7398 O   0  0  0  0  0  0
  -14.7646   14.7486  -18.5438 C   0  0  0  0  0  0
  -14.2451   16.6045  -17.7310 O   0  0  0  0  0  0
  -18.0034   15.8619  -16.0191 C   0  0  0  0  0  0
  -18.3597   17.2001  -15.9120 C   0  0  0  0  0  0
  -21.1289   19.1923  -15.5906 N   0  0  0  0  0  0
  -22.6388   20.9377  -11.2448 C   0  0  0  0  0  0
  -22.4953   22.8903  -10.6562 C   0  0  0  0  0  0
  -21.6272   23.9749  -11.4985 C   0  0  0  0  0  0
  -21.0625   25.3249  -10.5795 Cl  0  0  0  0  0  0
  -20.8311   23.3587  -12.7421 C   0  0  0  0  0  0
  -22.8183   18.7127  -13.1531 H   0  0  0  0  0  0
  -19.7951   19.2634  -18.4765 H   0  0  0  0  0  0
  1  2  1  0  0  0
  2  3  2  0  0  0
  2 30  1  0  0  0
  3  4  1  0  0  0
  3 26  1  0  0  0
  4  5  1  0  0  0
  4 31  1  0  0  0
  5  6  2  0  0  0
  5 25  1  0  0  0
  6  7  1  0  0  0
  6 11  1  0  0  0
  7  8  2  0  0  0
  8  9  1  0  0  0
  9 10  2  0  0  0
 10 11  1  0  0  0
 11 12  2  0  0  0
 12 13  1  0  0  0
 13 14  1  0  0  0
 13 25  2  0  0  0
 14 15  1  0  0  0
 14 32  1  0  0  0
 15 16  1  0  0  0
 16 17  2  0  0  0
 16 24  1  0  0  0
 17 18  1  0  0  0
 18 19  2  0  0  0
 18 22  1  0  0  0
 19 20  1  0  0  0
 19 23  1  0  0  0
 20 21  1  0  0  0
 21 22  1  0  0  0
 23 24  2  0  0  0
 26 27  2  0  0  0
 27 28  1  0  0  0
 28 29  1  0  0  0
 28 30  2  0  0  0
M  END
>  <CHROM.0>
-61.54957772,-75.67715842,109.77355672,64.13735135,-30.91118371,-177.54500381
-157.86218599,-159.42450229

>  <CHROM.1>
-0.05484012,-116.41123367,165.85910919,86.36430834,142.04068957,-20.43127850
19.65485292,-15.24432043,-2.21035593,0.18119270,-2.34588572

>  <Name>
F2359-0551

>  <RI>
1.33308e+07

>  <Rbt.Current_Directory>
/home/adria/Escritorio/rDock_CMTR_LC/2pxcA_model/inputs_sah

>  <Rbt.Executable>
rbdock ($Id: //depot/dev/client3/rdock/2013.1/src/exe/rbdock.cxx#4 $)

>  <Rbt.Library>
libRbt.so (2013.1, Build901 2013/11/27)

>  <Rbt.Parameter_File>
/home/adria/Escritorio/rDock_2013.1_src/data/scripts/dock.prm

>  <Rbt.Receptor>
sah_rdock.prm

>  <SCORE>
-264.941

>  <SCORE.INTER>
-10.8643

>  <SCORE.INTER.CONST>
1

>  <SCORE.INTER.POLAR>
-0.789569

>  <SCORE.INTER.REPUL>
0.660073

>  <SCORE.INTER.ROT>
5

>  <SCORE.INTER.VDW>
-21.8801

>  <SCORE.INTER.norm>
-0.362142

>  <SCORE.INTRA>
-246.51

>  <SCORE.INTRA.DIHEDRAL>
7.21402

>  <SCORE.INTRA.DIHEDRAL.0>
9.58136

>  <SCORE.INTRA.POLAR>
0

>  <SCORE.INTRA.POLAR.0>
0

>  <SCORE.INTRA.REPUL>
0

>  <SCORE.INTRA.REPUL.0>
0

>  <SCORE.INTRA.VDW>
-250.117

>  <SCORE.INTRA.VDW.0>
248.381

>  <SCORE.INTRA.norm>
-8.21699

>  <SCORE.RESTR>
0

>  <SCORE.RESTR.CAVITY>
0

>  <SCORE.RESTR.norm>
0

>  <SCORE.SYSTEM>
-7.56704

>  <SCORE.SYSTEM.CONST>
0

>  <SCORE.SYSTEM.DIHEDRAL>
9.7064

>  <SCORE.SYSTEM.POLAR>
-4.67885

>  <SCORE.SYSTEM.REPUL>
0.0429618

>  <SCORE.SYSTEM.VDW>
3.27304

>  <SCORE.SYSTEM.norm>
-0.252235

>  <SCORE.heavy>
30

>  <SCORE.norm>
-8.83136

$$$$
F2359-0551
  rDOCK(R)          3D
libRbt.so/2013.1/901 2013/11/27
 32 36  0  0  0  0  0  0  0  0999 V2000
  -22.8629   20.0880   -8.2829 C   0  0  0  0  0  0
  -23.1705   20.9651   -9.4552 C   0  0  0  0  0  0
  -22.7984   20.4106  -10.9878 C   0  0  0  0  0  0
  -21.5749   19.7355  -11.2362 N   0  0  0  0  0  0
  -20.9757   19.2540  -12.4512 C   0  0  0  0  0  0
  -21.7485   18.4779  -13.3098 C   0  0  0  0  0  0
  -22.9978   18.0117  -12.9908 N   0  0  0  0  0  0
  -23.6628   17.3784  -13.9762 C   0  0  0  0  0  0
  -23.1085   17.2003  -15.2231 C   0  0  0  0  0  0
  -21.8608   17.6241  -15.5232 N   0  0  0  0  0  0
  -21.1656   18.2694  -14.5756 C   0  0  0  0  0  0
  -19.9689   18.7351  -14.9264 N   0  0  0  0  0  0
  -19.2758   19.4286  -14.0283 C   0  0  0  0  0  0
  -18.1583   20.0634  -14.4941 N   0  0  0  0  0  0
  -17.7423   20.5039  -15.8234 C   0  0  0  0  0  0
  -16.9510   19.5311  -16.6810 C   0  0  0  0  0  0
  -17.6731   18.4381  -17.2514 C   0  0  0  0  0  0
  -16.7923   17.4885  -17.6037 C   0  0  0  0  0  0
  -15.1501   17.6352  -17.0134 C   0  0  0  0  0  0
  -14.3971   16.1303  -16.5095 O   0  0  0  0  0  0
  -15.5960   14.6765  -16.7772 C   0  0  0  0  0  0
  -17.2267   15.6655  -17.6360 O   0  0  0  0  0  0
  -14.4848   18.7776  -17.0000 C   0  0  0  0  0  0
  -15.4494   19.7596  -16.8151 C   0  0  0  0  0  0
  -19.7402   19.6548  -12.8040 N   0  0  0  0  0  0
  -23.7111   21.1765  -12.2149 C   0  0  0  0  0  0
  -24.7549   22.8440  -11.6588 C   0  0  0  0  0  0
  -24.8555   23.3105  -10.1059 C   0  0  0  0  0  0
  -26.2415   24.2692   -9.7236 Cl  0  0  0  0  0  0
  -24.1644   22.3058   -9.0701 C   0  0  0  0  0  0
  -20.8910   19.7827  -10.4870 H   0  0  0  0  0  0
  -17.5512   20.3102  -13.7232 H   0  0  0  0  0  0
  1  2  1  0  0  0
  2  3  2  0  0  0
  2 30  1  0  0  0
  3  4  1  0  0  0
  3 26  1  0  0  0
  4  5  1  0  0  0
  4 31  1  0  0  0
  5  6  2  0  0  0
  5 25  1  0  0  0
  6  7  1  0  0  0
  6 11  1  0  0  0
  7  8  2  0  0  0
  8  9  1  0  0  0
  9 10  2  0  0  0
 10 11  1  0  0  0
 11 12  2  0  0  0
 12 13  1  0  0  0
 13 14  1  0  0  0
 13 25  2  0  0  0
 14 15  1  0  0  0
 14 32  1  0  0  0
 15 16  1  0  0  0
 16 17  2  0  0  0
 16 24  1  0  0  0
 17 18  1  0  0  0
 18 19  2  0  0  0
 18 22  1  0  0  0
 19 20  1  0  0  0
 19 23  1  0  0  0
 20 21  1  0  0  0
 21 22  1  0  0  0
 23 24  2  0  0  0
 26 27  2  0  0  0
 27 28  1  0  0  0
 28 29  1  0  0  0
 28 30  2  0  0  0
M  END
>  <CHROM.0>
38.18742713,69.00561800,73.80479797,64.60726932,-29.44190879,-176.79289433
-38.30252242,-161.62787173

>  <CHROM.1>
-174.80671459,-49.77678760,22.17191714,-90.05095413,73.53849092,-20.52610450
19.47013060,-13.67531271,2.46201558,0.40151006,0.49186739

>  <Name>
F2359-0551

>  <RI>
1.33308e+07

>  <Rbt.Current_Directory>
/home/adria/Escritorio/rDock_CMTR_LC/2pxcA_model/inputs_sah

>  <Rbt.Executable>
rbdock ($Id: //depot/dev/client3/rdock/2013.1/src/exe/rbdock.cxx#4 $)

>  <Rbt.Library>
libRbt.so (2013.1, Build901 2013/11/27)

>  <Rbt.Parameter_File>
/home/adria/Escritorio/rDock_2013.1_src/data/scripts/dock.prm

>  <Rbt.Receptor>
sah_rdock.prm

>  <SCORE>
-266.192

>  <SCORE.INTER>
-14.0528

>  <SCORE.INTER.CONST>
1

>  <SCORE.INTER.POLAR>
-0.908561

>  <SCORE.INTER.REPUL>
0.0253876

>  <SCORE.INTER.ROT>
5

>  <SCORE.INTER.VDW>
-21.4906

>  <SCORE.INTER.norm>
-0.468427

>  <SCORE.INTRA>
-249.182

>  <SCORE.INTRA.DIHEDRAL>
3.30612

>  <SCORE.INTRA.DIHEDRAL.0>
9.58136

>  <SCORE.INTRA.POLAR>
0

>  <SCORE.INTRA.POLAR.0>
0

>  <SCORE.INTRA.REPUL>
0

>  <SCORE.INTRA.REPUL.0>
0

>  <SCORE.INTRA.VDW>
-250.835

>  <SCORE.INTRA.VDW.0>
248.381

>  <SCORE.INTRA.norm>
-8.30607

>  <SCORE.RESTR>
0

>  <SCORE.RESTR.CAVITY>
0

>  <SCORE.RESTR.norm>
0

>  <SCORE.SYSTEM>
-2.95734

>  <SCORE.SYSTEM.CONST>
0

>  <SCORE.SYSTEM.DIHEDRAL>
8.30029

>  <SCORE.SYSTEM.POLAR>
-3.66828

>  <SCORE.SYSTEM.REPUL>
0.128836

>  <SCORE.SYSTEM.VDW>
4.72051

>  <SCORE.SYSTEM.norm>
-0.0985779

>  <SCORE.heavy>
30

>  <SCORE.norm>
-8.87307

$$$$
F2359-0551
  rDOCK(R)          3D
libRbt.so/2013.1/901 2013/11/27
 32 36  0  0  0  0  0  0  0  0999 V2000
  -20.4240   21.0299  -14.1521 C   0  0  0  0  0  0
  -19.8235   19.6597  -14.1599 C   0  0  0  0  0  0
  -20.7198   18.3906  -13.5428 C   0  0  0  0  0  0
  -21.4721   18.5484  -12.3496 N   0  0  0  0  0  0
  -22.6532   19.3136  -12.0557 C   0  0  0  0  0  0
  -22.8858   19.6949  -10.7375 C   0  0  0  0  0  0
  -22.1391   19.2489   -9.6777 N   0  0  0  0  0  0
  -22.4151   19.8062   -8.4828 C   0  0  0  0  0  0
  -23.4005   20.7560   -8.3393 C   0  0  0  0  0  0
  -24.1633   21.1642   -9.3775 N   0  0  0  0  0  0
  -23.9165   20.6439  -10.5883 C   0  0  0  0  0  0
  -24.6383   21.1197  -11.6007 N   0  0  0  0  0  0
  -24.3813   20.6665  -12.8240 C   0  0  0  0  0  0
  -24.9931   21.3315  -13.8498 N   0  0  0  0  0  0
  -25.7795   22.5611  -13.9132 C   0  0  0  0  0  0
  -25.5774   23.5933  -12.8170 C   0  0  0  0  0  0
  -24.3540   24.3308  -12.8421 C   0  0  0  0  0  0
  -24.1575   24.8636  -11.6259 C   0  0  0  0  0  0
  -25.1620   24.2927  -10.3098 C   0  0  0  0  0  0
  -24.3357   24.0776   -8.7746 O   0  0  0  0  0  0
  -22.5050   24.5702   -8.9417 C   0  0  0  0  0  0
  -22.4498   25.2060  -10.9336 O   0  0  0  0  0  0
  -26.4638   24.0936  -10.4263 C   0  0  0  0  0  0
  -26.6586   23.7180  -11.7492 C   0  0  0  0  0  0
  -23.4411   19.7559  -13.0532 N   0  0  0  0  0  0
  -20.2206   16.8677  -14.1403 C   0  0  0  0  0  0
  -18.4384   16.8285  -15.1412 C   0  0  0  0  0  0
  -17.6318   18.1915  -15.5033 C   0  0  0  0  0  0
  -16.5681   18.0676  -16.8596 Cl  0  0  0  0  0  0
  -18.3995   19.5372  -15.1038 C   0  0  0  0  0  0
  -21.3029   17.8501  -11.6320 H   0  0  0  0  0  0
  -24.7859   20.8791  -14.7308 H   0  0  0  0  0  0
  1  2  1  0  0  0
  2  3  2  0  0  0
  2 30  1  0  0  0
  3  4  1  0  0  0
  3 26  1  0  0  0
  4  5  1  0  0  0
  4 31  1  0  0  0
  5  6  2  0  0  0
  5 25  1  0  0  0
  6  7  1  0  0  0
  6 11  1  0  0  0
  7  8  2  0  0  0
  8  9  1  0  0  0
  9 10  2  0  0  0
 10 11  1  0  0  0
 11 12  2  0  0  0
 12 13  1  0  0  0
 13 14  1  0  0  0
 13 25  2  0  0  0
 14 15  1  0  0  0
 14 32  1  0  0  0
 15 16  1  0  0  0
 16 17  2  0  0  0
 16 24  1  0  0  0
 17 18  1  0  0  0
 18 19  2  0  0  0
 18 22  1  0  0  0
 19 20  1  0  0  0
 19 23  1  0  0  0
 20 21  1  0  0  0
 21 22  1  0  0  0
 23 24  2  0  0  0
 26 27  2  0  0  0
 27 28  1  0  0  0
 28 29  1  0  0  0
 28 30  2  0  0  0
M  END
>  <CHROM.0>
-59.77728236,68.10443372,-163.04738901,-61.77872330,-30.58535736,-177.25936593
-111.96767336,-163.89214934

>  <CHROM.1>
69.16920166,-155.74688489,8.09774432,23.72890159,72.44520789,-22.36600416
20.94986648,-12.34676908,0.16903699,0.81420883,-1.05617931

>  <Name>
F2359-0551

>  <RI>
1.33308e+07

>  <Rbt.Current_Directory>
/home/adria/Escritorio/rDock_CMTR_LC/2pxcA_model/inputs_sah

>  <Rbt.Executable>
rbdock ($Id: //depot/dev/client3/rdock/2013.1/src/exe/rbdock.cxx#4 $)

>  <Rbt.Library>
libRbt.so (2013.1, Build901 2013/11/27)

>  <Rbt.Parameter_File>
/home/adria/Escritorio/rDock_2013.1_src/data/scripts/dock.prm

>  <Rbt.Receptor>
sah_rdock.prm

>  <SCORE>
-261.712

>  <SCORE.INTER>
-7.3629

>  <SCORE.INTER.CONST>
1

>  <SCORE.INTER.POLAR>
-0.693416

>  <SCORE.INTER.REPUL>
0.597597

>  <SCORE.INTER.ROT>
5

>  <SCORE.INTER.VDW>
-18.3933

>  <SCORE.INTER.norm>
-0.24543

>  <SCORE.INTRA>
-250.204

>  <SCORE.INTRA.DIHEDRAL>
4.41639

>  <SCORE.INTRA.DIHEDRAL.0>
9.58136

>  <SCORE.INTRA.POLAR>
0

>  <SCORE.INTRA.POLAR.0>
0

>  <SCORE.INTRA.REPUL>
0

>  <SCORE.INTRA.REPUL.0>
0

>  <SCORE.INTRA.VDW>
-252.412

>  <SCORE.INTRA.VDW.0>
248.381

>  <SCORE.INTRA.norm>
-8.34014

>  <SCORE.RESTR>
0

>  <SCORE.RESTR.CAVITY>
0

>  <SCORE.RESTR.norm>
0

>  <SCORE.SYSTEM>
-4.14472

>  <SCORE.SYSTEM.CONST>
0

>  <SCORE.SYSTEM.DIHEDRAL>
8.32097

>  <SCORE.SYSTEM.POLAR>
-3.40083

>  <SCORE.SYSTEM.VDW>
3.25763

>  <SCORE.SYSTEM.norm>
-0.138157

>  <SCORE.heavy>
30

>  <SCORE.norm>
-8.72373

$$$$
F2359-0551
  rDOCK(R)          3D
libRbt.so/2013.1/901 2013/11/27
 32 36  0  0  0  0  0  0  0  0999 V2000
  -18.4442   15.2486  -17.7477 C   0  0  0  0  0  0
  -18.0779   16.6277  -17.2981 C   0  0  0  0  0  0
  -18.8519   17.2642  -15.9600 C   0  0  0  0  0  0
  -20.2479   17.0844  -15.7774 N   0  0  0  0  0  0
  -21.1820   17.6938  -14.8703 C   0  0  0  0  0  0
  -22.5431   17.5371  -15.1151 C   0  0  0  0  0  0
  -23.0463   16.9710  -16.2579 N   0  0  0  0  0  0
  -24.3797   16.7823  -16.2875 C   0  0  0  0  0  0
  -25.1851   17.1523  -15.2348 C   0  0  0  0  0  0
  -24.6922   17.7480  -14.1263 N   0  0  0  0  0  0
  -23.3684   17.9461  -14.0487 C   0  0  0  0  0  0
  -22.9089   18.4700  -12.9145 N   0  0  0  0  0  0
  -21.5954   18.6282  -12.7814 C   0  0  0  0  0  0
  -21.1565   18.9667  -11.5318 N   0  0  0  0  0  0
  -21.7995   19.6110  -10.3891 C   0  0  0  0  0  0
  -23.2405   20.0658  -10.5456 C   0  0  0  0  0  0
  -24.2409   19.0458  -10.5670 C   0  0  0  0  0  0
  -25.3540   19.5581  -11.1148 C   0  0  0  0  0  0
  -25.2294   21.1030  -11.9301 C   0  0  0  0  0  0
  -26.1533   21.2425  -13.4176 O   0  0  0  0  0  0
  -27.1087   19.6301  -13.7487 C   0  0  0  0  0  0
  -26.5927   18.5136  -12.0569 O   0  0  0  0  0  0
  -24.5458   22.1250  -11.4443 C   0  0  0  0  0  0
  -23.5001   21.5572  -10.7279 C   0  0  0  0  0  0
  -20.7454   18.2892  -13.7449 N   0  0  0  0  0  0
  -17.9629   18.5164  -15.2070 C   0  0  0  0  0  0
  -16.3760   19.2591  -16.2606 C   0  0  0  0  0  0
  -15.8801   18.5795  -17.6504 C   0  0  0  0  0  0
  -14.2219   18.8619  -18.0461 Cl  0  0  0  0  0  0
  -16.6677   17.2450  -18.0489 C   0  0  0  0  0  0
  -20.7314   16.6218  -16.5413 H   0  0  0  0  0  0
  -20.2108   18.6348  -11.3931 H   0  0  0  0  0  0
  1  2  1  0  0  0
  2  3  2  0  0  0
  2 30  1  0  0  0
  3  4  1  0  0  0
  3 26  1  0  0  0
  4  5  1  0  0  0
  4 31  1  0  0  0
  5  6  2  0  0  0
  5 25  1  0  0  0
  6  7  1  0  0  0
  6 11  1  0  0  0
  7  8  2  0  0  0
  8  9  1  0  0  0
  9 10  2  0  0  0
 10 11  1  0  0  0
 11 12  2  0  0  0
 12 13  1  0  0  0
 13 14  1  0  0  0
 13 25  2  0  0  0
 14 15  1  0  0  0
 14 32  1  0  0  0
 15 16  1  0  0  0
 16 17  2  0  0  0
 16 24  1  0  0  0
 17 18  1  0  0  0
 18 19  2  0  0  0
 18 22  1  0  0  0
 19 20  1  0  0  0
 19 23  1  0  0  0
 20 21  1  0  0  0
 21 22  1  0  0  0
 23 24  2  0  0  0
 26 27  2  0  0  0
 27 28  1  0  0  0
 28 29  1  0  0  0
 28 30  2  0  0  0
M  END
>  <CHROM.0>
-60.61632177,65.84090965,-165.52818074,61.30104915,-30.43978416,-59.69780733
81.46820954,-163.73401059

>  <CHROM.1>
-168.03841957,165.97267874,-23.28289512,-2.02208843,73.00285659,-21.50237055
18.58816133,-14.35408002,0.52903865,-0.19949197,-2.22333776

>  <Name>
F2359-0551

>  <RI>
1.33308e+07

>  <Rbt.Current_Directory>
/home/adria/Escritorio/rDock_CMTR_LC/2pxcA_model/inputs_sah

>  <Rbt.Executable>
rbdock ($Id: //depot/dev/client3/rdock/2013.1/src/exe/rbdock.cxx#4 $)

>  <Rbt.Library>
libRbt.so (2013.1, Build901 2013/11/27)

>  <Rbt.Parameter_File>
/home/adria/Escritorio/rDock_2013.1_src/data/scripts/dock.prm

>  <Rbt.Receptor>
sah_rdock.prm

>  <SCORE>
-270.549

>  <SCORE.INTER>
-10.2427

>  <SCORE.INTER.CONST>
1

>  <SCORE.INTER.POLAR>
-1.07443

>  <SCORE.INTER.REPUL>
0.00295347

>  <SCORE.INTER.ROT>
5

>  <SCORE.INTER.VDW>
-17.0044

>  <SCORE.INTER.norm>
-0.341422

>  <SCORE.INTRA>
-253.341

>  <SCORE.INTRA.DIHEDRAL>
-3.26963

>  <SCORE.INTRA.DIHEDRAL.0>
9.58136

>  <SCORE.INTRA.POLAR>
-0.0879935

>  <SCORE.INTRA.POLAR.0>
0

>  <SCORE.INTRA.REPUL>
0

>  <SCORE.INTRA.REPUL.0>
0

>  <SCORE.INTRA.VDW>
-251.407

>  <SCORE.INTRA.VDW.0>
248.381

>  <SCORE.INTRA.norm>
-8.44469

>  <SCORE.RESTR>
0

>  <SCORE.RESTR.CAVITY>
0

>  <SCORE.RESTR.norm>
0

>  <SCORE.SYSTEM>
-6.96527

>  <SCORE.SYSTEM.CONST>
0

>  <SCORE.SYSTEM.DIHEDRAL>
5.58613

>  <SCORE.SYSTEM.POLAR>
-3.59433

>  <SCORE.SYSTEM.VDW>
2.4624

>  <SCORE.SYSTEM.norm>
-0.232176

>  <SCORE.heavy>
30

>  <SCORE.norm>
-9.01829

$$$$
F2359-0551
  rDOCK(R)          3D
libRbt.so/2013.1/901 2013/11/27
 32 36  0  0  0  0  0  0  0  0999 V2000
  -19.1075   19.9763  -16.9730 C   0  0  0  0  0  0
  -18.3587   18.6850  -16.8730 C   0  0  0  0  0  0
  -19.1939   17.2562  -17.1085 C   0  0  0  0  0  0
  -20.4873   17.0736  -16.5530 N   0  0  0  0  0  0
  -21.2626   17.8759  -15.6463 C   0  0  0  0  0  0
  -22.6471   17.7335  -15.6523 C   0  0  0  0  0  0
  -23.3275   16.9902  -16.5820 N   0  0  0  0  0  0
  -24.6518   16.8544  -16.3772 C   0  0  0  0  0  0
  -25.2808   17.4426  -15.3037 C   0  0  0  0  0  0
  -24.6155   18.2091  -14.4113 N   0  0  0  0  0  0
  -23.2931   18.3632  -14.5699 C   0  0  0  0  0  0
  -22.6577   19.0653  -13.6342 N   0  0  0  0  0  0
  -21.3375   19.1908  -13.7299 C   0  0  0  0  0  0
  -20.7071   19.7326  -12.6446 N   0  0  0  0  0  0
  -21.1940   20.3557  -11.4163 C   0  0  0  0  0  0
  -22.2588   21.4325  -11.5374 C   0  0  0  0  0  0
  -22.3504   22.1121  -12.7909 C   0  0  0  0  0  0
  -23.0143   23.2628  -12.5994 C   0  0  0  0  0  0
  -23.2779   23.7916  -10.9508 C   0  0  0  0  0  0
  -23.0928   25.5170  -10.6781 O   0  0  0  0  0  0
  -22.6704   26.3966  -12.3122 C   0  0  0  0  0  0
  -22.7211   24.7882  -13.6483 O   0  0  0  0  0  0
  -23.6529   22.9762   -9.9801 C   0  0  0  0  0  0
  -23.0988   21.7444  -10.3037 C   0  0  0  0  0  0
  -20.6504   18.6475  -14.7291 N   0  0  0  0  0  0
  -18.1796   15.9573  -17.5660 C   0  0  0  0  0  0
  -16.1689   16.2631  -17.3586 C   0  0  0  0  0  0
  -15.5629   17.7150  -16.9535 C   0  0  0  0  0  0
  -13.9322   17.9875  -17.4562 Cl  0  0  0  0  0  0
  -16.6570   18.8768  -16.8388 C   0  0  0  0  0  0
  -21.0712   16.3890  -17.0237 H   0  0  0  0  0  0
  -19.7066   19.6029  -12.7223 H   0  0  0  0  0  0
  1  2  1  0  0  0
  2  3  2  0  0  0
  2 30  1  0  0  0
  3  4  1  0  0  0
  3 26  1  0  0  0
  4  5  1  0  0  0
  4 31  1  0  0  0
  5  6  2  0  0  0
  5 25  1  0  0  0
  6  7  1  0  0  0
  6 11  1  0  0  0
  7  8  2  0  0  0
  8  9  1  0  0  0
  9 10  2  0  0  0
 10 11  1  0  0  0
 11 12  2  0  0  0
 12 13  1  0  0  0
 13 14  1  0  0  0
 13 25  2  0  0  0
 14 15  1  0  0  0
 14 32  1  0  0  0
 15 16  1  0  0  0
 16 17  2  0  0  0
 16 24  1  0  0  0
 17 18  1  0  0  0
 18 19  2  0  0  0
 18 22  1  0  0  0
 19 20  1  0  0  0
 19 23  1  0  0  0
 20 21  1  0  0  0
 21 22  1  0  0  0
 23 24  2  0  0  0
 26 27  2  0  0  0
 27 28  1  0  0  0
 28 29  1  0  0  0
 28 30  2  0  0  0
M  END
>  <CHROM.0>
169.56548809,-70.41532393,-129.25739099,-59.81178426,-29.86065579,-65.81094774
-157.31128333,-159.96487569

>  <CHROM.1>
-7.14438412,156.32095775,-7.93409078,-48.70335283,-22.98224295,-20.82473933
19.72024115,-14.57128686,-0.86030786,0.24255442,0.56266355

>  <Name>
F2359-0551

>  <RI>
1.33308e+07

>  <Rbt.Current_Directory>
/home/adria/Escritorio/rDock_CMTR_LC/2pxcA_model/inputs_sah

>  <Rbt.Executable>
rbdock ($Id: //depot/dev/client3/rdock/2013.1/src/exe/rbdock.cxx#4 $)

>  <Rbt.Library>
libRbt.so (2013.1, Build901 2013/11/27)

>  <Rbt.Parameter_File>
/home/adria/Escritorio/rDock_2013.1_src/data/scripts/dock.prm

>  <Rbt.Receptor>
sah_rdock.prm

>  <SCORE>
-273.259

>  <SCORE.INTER>
-15.6714

>  <SCORE.INTER.CONST>
1

>  <SCORE.INTER.POLAR>
-2.47331

>  <SCORE.INTER.REPUL>
0.0264197

>  <SCORE.INTER.ROT>
5

>  <SCORE.INTER.VDW>
-17.7943

>  <SCORE.INTER.norm>
-0.522382

>  <SCORE.INTRA>
-251.24

>  <SCORE.INTRA.DIHEDRAL>
-1.52004

>  <SCORE.INTRA.DIHEDRAL.0>
9.58136

>  <SCORE.INTRA.POLAR>
-0.0675633

>  <SCORE.INTRA.POLAR.0>
0

>  <SCORE.INTRA.REPUL>
0

>  <SCORE.INTRA.REPUL.0>
0

>  <SCORE.INTRA.VDW>
-250.25

>  <SCORE.INTRA.VDW.0>
248.381

>  <SCORE.INTRA.norm>
-8.37466

>  <SCORE.RESTR>
0

>  <SCORE.RESTR.CAVITY>
0

>  <SCORE.RESTR.norm>
0

>  <SCORE.SYSTEM>
-6.34742

>  <SCORE.SYSTEM.CONST>
0

>  <SCORE.SYSTEM.DIHEDRAL>
9.83894

>  <SCORE.SYSTEM.POLAR>
-4.51003

>  <SCORE.SYSTEM.REPUL>
0.033597

>  <SCORE.SYSTEM.VDW>
3.89923

>  <SCORE.SYSTEM.norm>
-0.211581

>  <SCORE.heavy>
30

>  <SCORE.norm>
-9.10862

$$$$
F2359-0551
  rDOCK(R)          3D
libRbt.so/2013.1/901 2013/11/27
 32 36  0  0  0  0  0  0  0  0999 V2000
  -17.7938   16.0626  -17.9222 C   0  0  0  0  0  0
  -17.6327   17.4913  -17.5087 C   0  0  0  0  0  0
  -18.7732   18.1610  -16.4862 C   0  0  0  0  0  0
  -20.1554   17.8963  -16.6709 N   0  0  0  0  0  0
  -21.2924   18.0979  -15.8144 C   0  0  0  0  0  0
  -22.5501   17.7308  -16.2840 C   0  0  0  0  0  0
  -22.7905   17.3363  -17.5749 N   0  0  0  0  0  0
  -24.0368   16.8978  -17.8375 C   0  0  0  0  0  0
  -25.0106   16.8646  -16.8657 C   0  0  0  0  0  0
  -24.7832   17.2927  -15.6042 N   0  0  0  0  0  0
  -23.5534   17.7280  -15.2946 C   0  0  0  0  0  0
  -23.3449   18.0753  -14.0266 N   0  0  0  0  0  0
  -22.1220   18.4584  -13.6722 C   0  0  0  0  0  0
  -21.9039   18.5995  -12.3301 N   0  0  0  0  0  0
  -22.7978   18.6903  -11.1782 C   0  0  0  0  0  0
  -22.8300   19.9962  -10.4027 C   0  0  0  0  0  0
  -23.4679   19.9726   -9.1244 C   0  0  0  0  0  0
  -23.7731   21.2340   -8.7818 C   0  0  0  0  0  0
  -23.6577   22.4691  -10.0180 C   0  0  0  0  0  0
  -24.9377   23.6720   -9.9980 O   0  0  0  0  0  0
  -26.1410   23.3238   -8.5652 C   0  0  0  0  0  0
  -25.2296   21.6611   -7.6823 O   0  0  0  0  0  0
  -22.6528   22.5454  -10.8738 C   0  0  0  0  0  0
  -22.2391   21.2340  -11.0688 C   0  0  0  0  0  0
  -21.1213   18.5109  -14.5449 N   0  0  0  0  0  0
  -18.1866   19.5208  -15.6305 C   0  0  0  0  0  0
  -16.4109   20.3001  -16.2779 C   0  0  0  0  0  0
  -15.5213   19.5645  -17.4210 C   0  0  0  0  0  0
  -13.8340   19.9353  -17.3791 Cl  0  0  0  0  0  0
  -16.1032   18.1539  -17.9024 C   0  0  0  0  0  0
  -20.4460   17.7466  -17.6323 H   0  0  0  0  0  0
  -20.9116   18.5733  -12.1338 H   0  0  0  0  0  0
  1  2  1  0  0  0
  2  3  2  0  0  0
  2 30  1  0  0  0
  3  4  1  0  0  0
  3 26  1  0  0  0
  4  5  1  0  0  0
  4 31  1  0  0  0
  5  6  2  0  0  0
  5 25  1  0  0  0
  6  7  1  0  0  0
  6 11  1  0  0  0
  7  8  2  0  0  0
  8  9  1  0  0  0
  9 10  2  0  0  0
 10 11  1  0  0  0
 11 12  2  0  0  0
 12 13  1  0  0  0
 13 14  1  0  0  0
 13 25  2  0  0  0
 14 15  1  0  0  0
 14 32  1  0  0  0
 15 16  1  0  0  0
 16 17  2  0  0  0
 16 24  1  0  0  0
 17 18  1  0  0  0
 18 19  2  0  0  0
 18 22  1  0  0  0
 19 20  1  0  0  0
 19 23  1  0  0  0
 20 21  1  0  0  0
 21 22  1  0  0  0
 23 24  2  0  0  0
 26 27  2  0  0  0
 27 28  1  0  0  0
 28 29  1  0  0  0
 28 30  2  0  0  0
M  END
>  <CHROM.0>
-64.06429575,65.96121375,112.80079933,63.98142137,-29.41771080,-53.27270509
83.37015579,-160.46318531

>  <CHROM.1>
165.25403682,-179.97269134,-15.10748618,-114.37725390,-166.35514766,-21.14360613
19.30760709,-14.14500809,0.77849379,-0.28052606,-2.20613203

>  <Name>
F2359-0551

>  <RI>
1.33308e+07

>  <Rbt.Current_Directory>
/home/adria/Escritorio/rDock_CMTR_LC/2pxcA_model/inputs_sah

>  <Rbt.Executable>
rbdock ($Id: //depot/dev/client3/rdock/2013.1/src/exe/rbdock.cxx#4 $)

>  <Rbt.Library>
libRbt.so (2013.1, Build901 2013/11/27)

>  <Rbt.Parameter_File>
/home/adria/Escritorio/rDock_2013.1_src/data/scripts/dock.prm

>  <Rbt.Receptor>
sah_rdock.prm

>  <SCORE>
-272.207

>  <SCORE.INTER>
-14.579

>  <SCORE.INTER.CONST>
1

>  <SCORE.INTER.POLAR>
-1.68878

>  <SCORE.INTER.REPUL>
0.110444

>  <SCORE.INTER.ROT>
5

>  <SCORE.INTER.VDW>
-19.7894

>  <SCORE.INTER.norm>
-0.485968

>  <SCORE.INTRA>
-250.846

>  <SCORE.INTRA.DIHEDRAL>
-1.20497

>  <SCORE.INTRA.DIHEDRAL.0>
9.58136

>  <SCORE.INTRA.POLAR>
-0.0629594

>  <SCORE.INTRA.POLAR.0>
0

>  <SCORE.INTRA.REPUL>
0

>  <SCORE.INTRA.REPUL.0>
0

>  <SCORE.INTRA.VDW>
-250.029

>  <SCORE.INTRA.VDW.0>
248.381

>  <SCORE.INTRA.norm>
-8.36153

>  <SCORE.RESTR>
0

>  <SCORE.RESTR.CAVITY>
0

>  <SCORE.RESTR.norm>
0

>  <SCORE.SYSTEM>
-6.78179

>  <SCORE.SYSTEM.CONST>
0

>  <SCORE.SYSTEM.DIHEDRAL>
9.35183

>  <SCORE.SYSTEM.POLAR>
-4.2967

>  <SCORE.SYSTEM.VDW>
3.15108

>  <SCORE.SYSTEM.norm>
-0.22606

>  <SCORE.heavy>
30

>  <SCORE.norm>
-9.07356

$$$$
F2359-0551
  rDOCK(R)          3D
libRbt.so/2013.1/901 2013/11/27
 32 36  0  0  0  0  0  0  0  0999 V2000
  -22.4609   17.4107  -13.6664 C   0  0  0  0  0  0
  -22.3392   18.1318  -12.3613 C   0  0  0  0  0  0
  -21.1363   19.2802  -12.1916 C   0  0  0  0  0  0
  -19.8329   19.0442  -12.7016 N   0  0  0  0  0  0
  -19.3658   18.2574  -13.8106 C   0  0  0  0  0  0
  -18.6184   18.8863  -14.8020 C   0  0  0  0  0  0
  -18.4360   20.2436  -14.8660 N   0  0  0  0  0  0
  -17.5871   20.6827  -15.8152 C   0  0  0  0  0  0
  -16.9552   19.8151  -16.6764 C   0  0  0  0  0  0
  -17.1681   18.4811  -16.6386 N   0  0  0  0  0  0
  -17.9976   17.9980  -15.7026 C   0  0  0  0  0  0
  -18.1298   16.6745  -15.6479 N   0  0  0  0  0  0
  -18.9009   16.1580  -14.6958 C   0  0  0  0  0  0
  -18.8387   14.8008  -14.5453 N   0  0  0  0  0  0
  -18.2691   13.7315  -15.3616 C   0  0  0  0  0  0
  -17.2766   14.1149  -16.4460 C   0  0  0  0  0  0
  -15.9325   14.3663  -16.0317 C   0  0  0  0  0  0
  -15.3197   15.0735  -16.9940 C   0  0  0  0  0  0
  -16.3132   15.7707  -18.2565 C   0  0  0  0  0  0
  -15.8536   17.3880  -18.7652 O   0  0  0  0  0  0
  -14.3203   17.9676  -17.7980 C   0  0  0  0  0  0
  -13.9248   16.2734  -16.6371 O   0  0  0  0  0  0
  -17.3025   15.1184  -18.8426 C   0  0  0  0  0  0
  -17.8003   14.2603  -17.8706 C   0  0  0  0  0  0
  -19.5406   16.9229  -13.8174 N   0  0  0  0  0  0
  -21.4668   20.4162  -10.9565 C   0  0  0  0  0  0
  -23.0050   19.9549   -9.6911 C   0  0  0  0  0  0
  -23.9707   18.6747   -9.9515 C   0  0  0  0  0  0
  -25.5426   18.7946   -9.2437 Cl  0  0  0  0  0  0
  -23.6742   17.8924  -11.3153 C   0  0  0  0  0  0
  -19.1188   19.6962  -12.3916 H   0  0  0  0  0  0
  -19.2244   14.5317  -13.6494 H   0  0  0  0  0  0
  1  2  1  0  0  0
  2  3  2  0  0  0
  2 30  1  0  0  0
  3  4  1  0  0  0
  3 26  1  0  0  0
  4  5  1  0  0  0
  4 31  1  0  0  0
  5  6  2  0  0  0
  5 25  1  0  0  0
  6  7  1  0  0  0
  6 11  1  0  0  0
  7  8  2  0  0  0
  8  9  1  0  0  0
  9 10  2  0  0  0
 10 11  1  0  0  0
 11 12  2  0  0  0
 12 13  1  0  0  0
 13 14  1  0  0  0
 13 25  2  0  0  0
 14 15  1  0  0  0
 14 32  1  0  0  0
 15 16  1  0  0  0
 16 17  2  0  0  0
 16 24  1  0  0  0
 17 18  1  0  0  0
 18 19  2  0  0  0
 18 22  1  0  0  0
 19 20  1  0  0  0
 19 23  1  0  0  0
 20 21  1  0  0  0
 21 22  1  0  0  0
 23 24  2  0  0  0
 26 27  2  0  0  0
 27 28  1  0  0  0
 28 29  1  0  0  0
 28 30  2  0  0  0
M  END
>  <CHROM.0>
-175.54130673,-72.53677528,76.53372440,62.75038517,-32.08746244,61.72747368
83.37576170,-50.74239531

>  <CHROM.1>
29.08384002,122.92427496,-12.45809477,16.17512691,80.06271874,-19.20301161
17.48372745,-14.48602741,2.75462137,0.68309229,0.19768066

>  <Name>
F2359-0551

>  <RI>
1.33308e+07

>  <Rbt.Current_Directory>
/home/adria/Escritorio/rDock_CMTR_LC/2pxcA_model/inputs_sah

>  <Rbt.Executable>
rbdock ($Id: //depot/dev/client3/rdock/2013.1/src/exe/rbdock.cxx#4 $)

>  <Rbt.Library>
libRbt.so (2013.1, Build901 2013/11/27)

>  <Rbt.Parameter_File>
/home/adria/Escritorio/rDock_2013.1_src/data/scripts/dock.prm

>  <Rbt.Receptor>
sah_rdock.prm

>  <SCORE>
-272.489

>  <SCORE.INTER>
-16.8128

>  <SCORE.INTER.CONST>
1

>  <SCORE.INTER.POLAR>
-0.824621

>  <SCORE.INTER.REPUL>
0

>  <SCORE.INTER.ROT>
5

>  <SCORE.INTER.VDW>
-24.4091

>  <SCORE.INTER.norm>
-0.560428

>  <SCORE.INTRA>
-250.557

>  <SCORE.INTRA.DIHEDRAL>
2.75779

>  <SCORE.INTRA.DIHEDRAL.0>
9.58136

>  <SCORE.INTRA.POLAR>
0

>  <SCORE.INTRA.POLAR.0>
0

>  <SCORE.INTRA.REPUL>
0

>  <SCORE.INTRA.REPUL.0>
0

>  <SCORE.INTRA.VDW>
-251.936

>  <SCORE.INTRA.VDW.0>
248.381

>  <SCORE.INTRA.norm>
-8.35189

>  <SCORE.RESTR>
0.0137782

>  <SCORE.RESTR.CAVITY>
0.0137782

>  <SCORE.RESTR.norm>
0.000459272

>  <SCORE.SYSTEM>
-5.13374

>  <SCORE.SYSTEM.CONST>
0

>  <SCORE.SYSTEM.DIHEDRAL>
8.79508

>  <SCORE.SYSTEM.POLAR>
-3.65998

>  <SCORE.SYSTEM.REPUL>
0.0475608

>  <SCORE.SYSTEM.VDW>
2.67485

>  <SCORE.SYSTEM.norm>
-0.171125

>  <SCORE.heavy>
30

>  <SCORE.norm>
-9.08298

$$$$
F2359-0551
  rDOCK(R)          3D
libRbt.so/2013.1/901 2013/11/27
 32 36  0  0  0  0  0  0  0  0999 V2000
  -20.0780   16.5628  -14.2027 C   0  0  0  0  0  0
  -19.9950   18.0533  -14.1048 C   0  0  0  0  0  0
  -20.5598   18.7961  -12.7177 C   0  0  0  0  0  0
  -21.7687   18.3690  -12.1088 N   0  0  0  0  0  0
  -23.0044   19.0556  -11.8468 C   0  0  0  0  0  0
  -23.2016   19.6086  -10.5849 C   0  0  0  0  0  0
  -22.3552   19.4002   -9.5267 N   0  0  0  0  0  0
  -22.6207   20.1035   -8.4090 C   0  0  0  0  0  0
  -23.6893   20.9676   -8.3361 C   0  0  0  0  0  0
  -24.5466   21.1405   -9.3664 N   0  0  0  0  0  0
  -24.3149   20.4684  -10.5032 C   0  0  0  0  0  0
  -25.1369   20.7155  -11.5207 N   0  0  0  0  0  0
  -24.9028   20.1085  -12.6802 C   0  0  0  0  0  0
  -25.6358   20.5503  -13.7462 N   0  0  0  0  0  0
  -25.8243   21.8669  -14.3505 C   0  0  0  0  0  0
  -25.4754   23.0891  -13.5183 C   0  0  0  0  0  0
  -24.4715   23.9611  -14.0409 C   0  0  0  0  0  0
  -24.0022   24.7153  -13.0346 C   0  0  0  0  0  0
  -24.4280   24.2556  -11.3992 C   0  0  0  0  0  0
  -23.1393   24.4140  -10.2161 O   0  0  0  0  0  0
  -21.5696   25.0997  -11.0457 C   0  0  0  0  0  0
  -22.2525   25.3860  -13.0018 O   0  0  0  0  0  0
  -25.6444   23.8752  -11.0475 C   0  0  0  0  0  0
  -26.1732   23.2565  -12.1729 C   0  0  0  0  0  0
  -23.8878   19.2660  -12.8402 N   0  0  0  0  0  0
  -19.8816   20.3459  -12.4664 C   0  0  0  0  0  0
  -18.8577   21.1516  -14.0419 C   0  0  0  0  0  0
  -18.5532   20.2971  -15.3896 C   0  0  0  0  0  0
  -17.1793   20.8293  -16.2925 Cl  0  0  0  0  0  0
  -19.0283   18.7707  -15.3232 C   0  0  0  0  0  0
  -21.8888   17.3632  -12.0365 H   0  0  0  0  0  0
  -26.0730   19.7682  -14.2163 H   0  0  0  0  0  0
  1  2  1  0  0  0
  2  3  2  0  0  0
  2 30  1  0  0  0
  3  4  1  0  0  0
  3 26  1  0  0  0
  4  5  1  0  0  0
  4 31  1  0  0  0
  5  6  2  0  0  0
  5 25  1  0  0  0
  6  7  1  0  0  0
  6 11  1  0  0  0
  7  8  2  0  0  0
  8  9  1  0  0  0
  9 10  2  0  0  0
 10 11  1  0  0  0
 11 12  2  0  0  0
 12 13  1  0  0  0
 13 14  1  0  0  0
 13 25  2  0  0  0
 14 15  1  0  0  0
 14 32  1  0  0  0
 15 16  1  0  0  0
 16 17  2  0  0  0
 16 24  1  0  0  0
 17 18  1  0  0  0
 18 19  2  0  0  0
 18 22  1  0  0  0
 19 20  1  0  0  0
 19 23  1  0  0  0
 20 21  1  0  0  0
 21 22  1  0  0  0
 23 24  2  0  0  0
 26 27  2  0  0  0
 27 28  1  0  0  0
 28 29  1  0  0  0
 28 30  2  0  0  0
M  END
>  <CHROM.0>
-175.54947167,69.19070529,107.77418038,67.99941835,168.65109263,-54.90941028
-156.02688867,-160.09956639

>  <CHROM.1>
-119.29780900,-96.34191723,55.42521364,-18.87712382,120.40840069,-22.45374920
21.15203550,-12.52618190,0.21280770,-0.64761944,2.77565052

>  <Name>
F2359-0551

>  <RI>
1.33308e+07

>  <Rbt.Current_Directory>
/home/adria/Escritorio/rDock_CMTR_LC/2pxcA_model/inputs_sah

>  <Rbt.Executable>
rbdock ($Id: //depot/dev/client3/rdock/2013.1/src/exe/rbdock.cxx#4 $)

>  <Rbt.Library>
libRbt.so (2013.1, Build901 2013/11/27)

>  <Rbt.Parameter_File>
/home/adria/Escritorio/rDock_2013.1_src/data/scripts/dock.prm

>  <Rbt.Receptor>
sah_rdock.prm

>  <SCORE>
-252.023

>  <SCORE.INTER>
-9.02483

>  <SCORE.INTER.CONST>
1

>  <SCORE.INTER.POLAR>
-1.62025

>  <SCORE.INTER.REPUL>
0.733754

>  <SCORE.INTER.ROT>
5

>  <SCORE.INTER.VDW>
-17.5848

>  <SCORE.INTER.norm>
-0.300828

>  <SCORE.INTRA>
-241.365

>  <SCORE.INTRA.DIHEDRAL>
21.1167

>  <SCORE.INTRA.DIHEDRAL.0>
9.58136

>  <SCORE.INTRA.POLAR>
0

>  <SCORE.INTRA.POLAR.0>
0

>  <SCORE.INTRA.REPUL>
0

>  <SCORE.INTRA.REPUL.0>
0

>  <SCORE.INTRA.VDW>
-251.923

>  <SCORE.INTRA.VDW.0>
248.381

>  <SCORE.INTRA.norm>
-8.0455

>  <SCORE.RESTR>
0

>  <SCORE.RESTR.CAVITY>
0

>  <SCORE.RESTR.norm>
0

>  <SCORE.SYSTEM>
-1.63353

>  <SCORE.SYSTEM.CONST>
0

>  <SCORE.SYSTEM.DIHEDRAL>
6.53964

>  <SCORE.SYSTEM.POLAR>
-4.2092

>  <SCORE.SYSTEM.VDW>
9.40792

>  <SCORE.SYSTEM.norm>
-0.0544509

>  <SCORE.heavy>
30

>  <SCORE.norm>
-8.40078

$$$$
F2359-0551
  rDOCK(R)          3D
libRbt.so/2013.1/901 2013/11/27
 32 36  0  0  0  0  0  0  0  0999 V2000
  -18.4053   19.6391  -17.1996 C   0  0  0  0  0  0
  -18.4040   18.4442  -16.2992 C   0  0  0  0  0  0
  -19.5147   18.3823  -15.0514 C   0  0  0  0  0  0
  -19.7937   19.5356  -14.2726 N   0  0  0  0  0  0
  -20.5382   19.7129  -13.0555 C   0  0  0  0  0  0
  -20.7131   21.0043  -12.5669 C   0  0  0  0  0  0
  -20.0827   22.1035  -13.0905 N   0  0  0  0  0  0
  -20.4521   23.2954  -12.5834 C   0  0  0  0  0  0
  -21.3968   23.3951  -11.5876 C   0  0  0  0  0  0
  -21.9870   22.3077  -11.0440 N   0  0  0  0  0  0
  -21.6574   21.1005  -11.5256 C   0  0  0  0  0  0
  -22.3089   20.0570  -11.0170 N   0  0  0  0  0  0
  -22.0473   18.8505  -11.5109 C   0  0  0  0  0  0
  -22.8844   17.8459  -11.1125 N   0  0  0  0  0  0
  -24.1617   17.8337  -10.4036 C   0  0  0  0  0  0
  -24.8894   19.1552  -10.2240 C   0  0  0  0  0  0
  -25.7393   19.5749  -11.2931 C   0  0  0  0  0  0
  -25.9560   20.8935  -11.1670 C   0  0  0  0  0  0
  -24.9548   21.7838  -10.0392 C   0  0  0  0  0  0
  -24.4411   23.3725  -10.5849 O   0  0  0  0  0  0
  -25.1604   23.7369  -12.3089 C   0  0  0  0  0  0
  -26.2942   22.0096  -12.6342 O   0  0  0  0  0  0
  -24.6494   21.3367   -8.8331 C   0  0  0  0  0  0
  -24.6113   19.9537   -8.9552 C   0  0  0  0  0  0
  -21.1563   18.6654  -12.4792 N   0  0  0  0  0  0
  -19.8216   16.7896  -14.5089 C   0  0  0  0  0  0
  -18.5360   15.3446  -15.1715 C   0  0  0  0  0  0
  -17.3991   15.6596  -16.2884 C   0  0  0  0  0  0
  -16.8766   14.2878  -17.2002 Cl  0  0  0  0  0  0
  -17.4510   17.1451  -16.8805 C   0  0  0  0  0  0
  -19.2029   20.3404  -14.4584 H   0  0  0  0  0  0
  -22.5419   16.9542  -11.4463 H   0  0  0  0  0  0
  1  2  1  0  0  0
  2  3  2  0  0  0
  2 30  1  0  0  0
  3  4  1  0  0  0
  3 26  1  0  0  0
  4  5  1  0  0  0
  4 31  1  0  0  0
  5  6  2  0  0  0
  5 25  1  0  0  0
  6  7  1  0  0  0
  6 11  1  0  0  0
  7  8  2  0  0  0
  8  9  1  0  0  0
  9 10  2  0  0  0
 10 11  1  0  0  0
 11 12  2  0  0  0
 12 13  1  0  0  0
 13 14  1  0  0  0
 13 25  2  0  0  0
 14 15  1  0  0  0
 14 32  1  0  0  0
 15 16  1  0  0  0
 16 17  2  0  0  0
 16 24  1  0  0  0
 17 18  1  0  0  0
 18 19  2  0  0  0
 18 22  1  0  0  0
 19 20  1  0  0  0
 19 23  1  0  0  0
 20 21  1  0  0  0
 21 22  1  0  0  0
 23 24  2  0  0  0
 26 27  2  0  0  0
 27 28  1  0  0  0
 28 29  1  0  0  0
 28 30  2  0  0  0
M  END
>  <CHROM.0>
-179.19007562,-171.19279951,-10.26438921,-60.65497156,-30.94532529,-62.75718395
82.51796806,-163.98195344

>  <CHROM.1>
-169.96722308,-175.79849388,11.29778928,11.72972701,85.82267584,-21.52655884
19.53256518,-12.92808487,-0.56509911,0.69165483,0.02362498

>  <Name>
F2359-0551

>  <RI>
1.33308e+07

>  <Rbt.Current_Directory>
/home/adria/Escritorio/rDock_CMTR_LC/2pxcA_model/inputs_sah

>  <Rbt.Executable>
rbdock ($Id: //depot/dev/client3/rdock/2013.1/src/exe/rbdock.cxx#4 $)

>  <Rbt.Library>
libRbt.so (2013.1, Build901 2013/11/27)

>  <Rbt.Parameter_File>
/home/adria/Escritorio/rDock_2013.1_src/data/scripts/dock.prm

>  <Rbt.Receptor>
sah_rdock.prm

>  <SCORE>
-269.291

>  <SCORE.INTER>
-9.55616

>  <SCORE.INTER.CONST>
1

>  <SCORE.INTER.POLAR>
-0.795597

>  <SCORE.INTER.REPUL>
0.0183644

>  <SCORE.INTER.ROT>
5

>  <SCORE.INTER.VDW>
-17.343

>  <SCORE.INTER.norm>
-0.318539

>  <SCORE.INTRA>
-254.279

>  <SCORE.INTRA.DIHEDRAL>
-4.19212

>  <SCORE.INTRA.DIHEDRAL.0>
9.58136

>  <SCORE.INTRA.POLAR>
-0.0463298

>  <SCORE.INTRA.POLAR.0>
0

>  <SCORE.INTRA.REPUL>
0

>  <SCORE.INTRA.REPUL.0>
0

>  <SCORE.INTRA.VDW>
-252.025

>  <SCORE.INTRA.VDW.0>
248.381

>  <SCORE.INTRA.norm>
-8.47596

>  <SCORE.RESTR>
0

>  <SCORE.RESTR.CAVITY>
0

>  <SCORE.RESTR.norm>
0

>  <SCORE.SYSTEM>
-5.45622

>  <SCORE.SYSTEM.CONST>
0

>  <SCORE.SYSTEM.DIHEDRAL>
8.64635

>  <SCORE.SYSTEM.POLAR>
-4.1998

>  <SCORE.SYSTEM.VDW>
4.49992

>  <SCORE.SYSTEM.norm>
-0.181874

>  <SCORE.heavy>
30

>  <SCORE.norm>
-8.97637

$$$$
F2359-0551
  rDOCK(R)          3D
libRbt.so/2013.1/901 2013/11/27
 32 36  0  0  0  0  0  0  0  0999 V2000
  -23.2813   21.3869   -9.3025 C   0  0  0  0  0  0
  -22.8603   20.4941  -10.4267 C   0  0  0  0  0  0
  -21.3218   20.6723  -11.0559 C   0  0  0  0  0  0
  -20.7736   21.9633  -11.2734 N   0  0  0  0  0  0
  -21.3371   23.2789  -11.1375 C   0  0  0  0  0  0
  -20.4935   24.3292  -10.7878 C   0  0  0  0  0  0
  -19.1871   24.1567  -10.4093 N   0  0  0  0  0  0
  -18.4719   25.2824  -10.2204 C   0  0  0  0  0  0
  -19.0306   26.5292  -10.3850 C   0  0  0  0  0  0
  -20.3296   26.6975  -10.7179 N   0  0  0  0  0  0
  -21.0771   25.6042  -10.9264 C   0  0  0  0  0  0
  -22.3322   25.8059  -11.3215 N   0  0  0  0  0  0
  -23.0852   24.7437  -11.5914 C   0  0  0  0  0  0
  -24.2863   24.9982  -12.1925 N   0  0  0  0  0  0
  -25.4421   24.1615  -12.5059 C   0  0  0  0  0  0
  -25.2915   22.6565  -12.3642 C   0  0  0  0  0  0
  -24.1988   22.0489  -13.0557 C   0  0  0  0  0  0
  -24.4500   20.7353  -13.1704 C   0  0  0  0  0  0
  -26.0681   20.1759  -12.8019 C   0  0  0  0  0  0
  -26.6930   18.9310  -13.8722 O   0  0  0  0  0  0
  -25.3876   18.4766  -15.1805 C   0  0  0  0  0  0
  -23.7968   19.6988  -14.5887 O   0  0  0  0  0  0
  -26.7613   20.6009  -11.7595 C   0  0  0  0  0  0
  -26.3442   21.9094  -11.5526 C   0  0  0  0  0  0
  -22.6224   23.5043  -11.4675 N   0  0  0  0  0  0
  -20.7625   19.2700  -11.8598 C   0  0  0  0  0  0
  -22.1616   17.8305  -12.2471 C   0  0  0  0  0  0
  -23.6758   17.9331  -11.6677 C   0  0  0  0  0  0
  -24.4940   16.4201  -11.5011 Cl  0  0  0  0  0  0
  -23.9287   19.1841  -10.7028 C   0  0  0  0  0  0
  -19.7600   22.0045  -11.3189 H   0  0  0  0  0  0
  -24.3737   25.9864  -12.3915 H   0  0  0  0  0  0
  1  2  1  0  0  0
  2  3  2  0  0  0
  2 30  1  0  0  0
  3  4  1  0  0  0
  3 26  1  0  0  0
  4  5  1  0  0  0
  4 31  1  0  0  0
  5  6  2  0  0  0
  5 25  1  0  0  0
  6  7  1  0  0  0
  6 11  1  0  0  0
  7  8  2  0  0  0
  8  9  1  0  0  0
  9 10  2  0  0  0
 10 11  1  0  0  0
 11 12  2  0  0  0
 12 13  1  0  0  0
 13 14  1  0  0  0
 13 25  2  0  0  0
 14 15  1  0  0  0
 14 32  1  0  0  0
 15 16  1  0  0  0
 16 17  2  0  0  0
 16 24  1  0  0  0
 17 18  1  0  0  0
 18 19  2  0  0  0
 18 22  1  0  0  0
 19 20  1  0  0  0
 19 23  1  0  0  0
 20 21  1  0  0  0
 21 22  1  0  0  0
 23 24  2  0  0  0
 26 27  2  0  0  0
 27 28  1  0  0  0
 28 29  1  0  0  0
 28 30  2  0  0  0
M  END
>  <CHROM.0>
-175.13969461,-70.71469166,-130.73482793,-61.55678524,6.23744832,-169.31772415
81.20415253,-166.35084354

>  <CHROM.1>
-5.05653199,149.43016917,-171.76005016,-11.27651440,-53.41109844,-23.09914774
21.68579823,-11.75306333,-0.98269200,0.38431295,-3.13605565

>  <Name>
F2359-0551

>  <RI>
1.33308e+07

>  <Rbt.Current_Directory>
/home/adria/Escritorio/rDock_CMTR_LC/2pxcA_model/inputs_sah

>  <Rbt.Executable>
rbdock ($Id: //depot/dev/client3/rdock/2013.1/src/exe/rbdock.cxx#4 $)

>  <Rbt.Library>
libRbt.so (2013.1, Build901 2013/11/27)

>  <Rbt.Parameter_File>
/home/adria/Escritorio/rDock_2013.1_src/data/scripts/dock.prm

>  <Rbt.Receptor>
sah_rdock.prm

>  <SCORE>
-261.864

>  <SCORE.INTER>
-13.5094

>  <SCORE.INTER.CONST>
1

>  <SCORE.INTER.POLAR>
-1.71707

>  <SCORE.INTER.REPUL>
0

>  <SCORE.INTER.ROT>
5

>  <SCORE.INTER.VDW>
-18.0714

>  <SCORE.INTER.norm>
-0.450315

>  <SCORE.INTRA>
-253.689

>  <SCORE.INTRA.DIHEDRAL>
-0.575333

>  <SCORE.INTRA.DIHEDRAL.0>
9.58136

>  <SCORE.INTRA.POLAR>
-0.0403132

>  <SCORE.INTRA.POLAR.0>
0

>  <SCORE.INTRA.REPUL>
0

>  <SCORE.INTRA.REPUL.0>
0

>  <SCORE.INTRA.VDW>
-253.264

>  <SCORE.INTRA.VDW.0>
248.381

>  <SCORE.INTRA.norm>
-8.4563

>  <SCORE.RESTR>
0

>  <SCORE.RESTR.CAVITY>
0

>  <SCORE.RESTR.norm>
0

>  <SCORE.SYSTEM>
5.33473

>  <SCORE.SYSTEM.CONST>
0

>  <SCORE.SYSTEM.DIHEDRAL>
12.5544

>  <SCORE.SYSTEM.POLAR>
-4.3524

>  <SCORE.SYSTEM.REPUL>
0.0342017

>  <SCORE.SYSTEM.VDW>
13.6847

>  <SCORE.SYSTEM.norm>
0.177824

>  <SCORE.heavy>
30

>  <SCORE.norm>
-8.72879

$$$$
F2359-0551
  rDOCK(R)          3D
libRbt.so/2013.1/901 2013/11/27
 32 36  0  0  0  0  0  0  0  0999 V2000
  -21.7000   17.3086  -14.1294 C   0  0  0  0  0  0
  -20.6177   18.3320  -14.2688 C   0  0  0  0  0  0
  -19.9841   19.0193  -12.8828 C   0  0  0  0  0  0
  -20.8326   19.4008  -11.8109 N   0  0  0  0  0  0
  -22.2530   19.6117  -11.7415 C   0  0  0  0  0  0
  -22.8300   19.8383  -10.4955 C   0  0  0  0  0  0
  -22.1488   19.7143   -9.3121 N   0  0  0  0  0  0
  -22.8164   20.0863   -8.2029 C   0  0  0  0  0  0
  -24.1113   20.5487   -8.2603 C   0  0  0  0  0  0
  -24.7952   20.6313   -9.4230 N   0  0  0  0  0  0
  -24.1663   20.2814  -10.5543 C   0  0  0  0  0  0
  -24.8448   20.4418  -11.6883 N   0  0  0  0  0  0
  -24.2321   20.1576  -12.8336 C   0  0  0  0  0  0
  -24.8862   20.5359  -13.9727 N   0  0  0  0  0  0
  -25.8398   21.6025  -14.2682 C   0  0  0  0  0  0
  -25.5873   22.9721  -13.6613 C   0  0  0  0  0  0
  -24.6259   23.8015  -14.3165 C   0  0  0  0  0  0
  -24.2289   24.7498  -13.4536 C   0  0  0  0  0  0
  -24.6664   24.5588  -11.7686 C   0  0  0  0  0  0
  -23.4196   25.0062  -10.6148 O   0  0  0  0  0  0
  -21.8746   25.6350  -11.5313 C   0  0  0  0  0  0
  -22.5248   25.5275  -13.5164 O   0  0  0  0  0  0
  -25.8655   24.1686  -11.3716 C   0  0  0  0  0  0
  -26.3273   23.3284  -12.3766 C   0  0  0  0  0  0
  -22.9799   19.7144  -12.8697 N   0  0  0  0  0  0
  -18.4190   19.6688  -13.1149 C   0  0  0  0  0  0
  -17.7916   19.8472  -15.0525 C   0  0  0  0  0  0
  -18.6547   19.2427  -16.2890 C   0  0  0  0  0  0
  -17.7362   18.8784  -17.7066 Cl  0  0  0  0  0  0
  -19.9561   18.4240  -15.8459 C   0  0  0  0  0  0
  -20.4337   19.3008  -10.8824 H   0  0  0  0  0  0
  -24.5746   19.9757  -14.7556 H   0  0  0  0  0  0
  1  2  1  0  0  0
  2  3  2  0  0  0
  2 30  1  0  0  0
  3  4  1  0  0  0
  3 26  1  0  0  0
  4  5  1  0  0  0
  4 31  1  0  0  0
  5  6  2  0  0  0
  5 25  1  0  0  0
  6  7  1  0  0  0
  6 11  1  0  0  0
  7  8  2  0  0  0
  8  9  1  0  0  0
  9 10  2  0  0  0
 10 11  1  0  0  0
 11 12  2  0  0  0
 12 13  1  0  0  0
 13 14  1  0  0  0
 13 25  2  0  0  0
 14 15  1  0  0  0
 14 32  1  0  0  0
 15 16  1  0  0  0
 16 17  2  0  0  0
 16 24  1  0  0  0
 17 18  1  0  0  0
 18 19  2  0  0  0
 18 22  1  0  0  0
 19 20  1  0  0  0
 19 23  1  0  0  0
 20 21  1  0  0  0
 21 22  1  0  0  0
 23 24  2  0  0  0
 26 27  2  0  0  0
 27 28  1  0  0  0
 28 29  1  0  0  0
 28 30  2  0  0  0
M  END
>  <CHROM.0>
172.42184185,-76.04966363,79.17609902,59.89095600,-30.01120090,61.98157759
-36.53399158,-63.30994575

>  <CHROM.1>
-16.71904561,172.71933366,27.60505166,41.51430392,80.15758376,-22.43982532
21.01944565,-12.83385014,-0.03420677,-0.81147426,2.35132884

>  <Name>
F2359-0551

>  <RI>
1.33308e+07

>  <Rbt.Current_Directory>
/home/adria/Escritorio/rDock_CMTR_LC/2pxcA_model/inputs_sah

>  <Rbt.Executable>
rbdock ($Id: //depot/dev/client3/rdock/2013.1/src/exe/rbdock.cxx#4 $)

>  <Rbt.Library>
libRbt.so (2013.1, Build901 2013/11/27)

>  <Rbt.Parameter_File>
/home/adria/Escritorio/rDock_2013.1_src/data/scripts/dock.prm

>  <Rbt.Receptor>
sah_rdock.prm

>  <SCORE>
-270.242

>  <SCORE.INTER>
-14.9028

>  <SCORE.INTER.CONST>
1

>  <SCORE.INTER.POLAR>
-2.75784

>  <SCORE.INTER.REPUL>
0.969348

>  <SCORE.INTER.ROT>
5

>  <SCORE.INTER.VDW>
-20.7729

>  <SCORE.INTER.norm>
-0.496762

>  <SCORE.INTRA>
-250.562

>  <SCORE.INTRA.DIHEDRAL>
1.57108

>  <SCORE.INTRA.DIHEDRAL.0>
9.58136

>  <SCORE.INTRA.POLAR>
-0.0836894

>  <SCORE.INTRA.POLAR.0>
0

>  <SCORE.INTRA.REPUL>
0

>  <SCORE.INTRA.REPUL.0>
0

>  <SCORE.INTRA.VDW>
-251.063

>  <SCORE.INTRA.VDW.0>
248.381

>  <SCORE.INTRA.norm>
-8.35206

>  <SCORE.RESTR>
0

>  <SCORE.RESTR.CAVITY>
0

>  <SCORE.RESTR.norm>
0

>  <SCORE.SYSTEM>
-4.77747

>  <SCORE.SYSTEM.CONST>
0

>  <SCORE.SYSTEM.DIHEDRAL>
10.945

>  <SCORE.SYSTEM.POLAR>
-3.75773

>  <SCORE.SYSTEM.REPUL>
0.0435208

>  <SCORE.SYSTEM.VDW>
2.30871

>  <SCORE.SYSTEM.norm>
-0.159249

>  <SCORE.heavy>
30

>  <SCORE.norm>
-9.00807

$$$$
F2359-0551
  rDOCK(R)          3D
libRbt.so/2013.1/901 2013/11/27
 32 36  0  0  0  0  0  0  0  0999 V2000
  -20.1842   20.9728  -14.4082 C   0  0  0  0  0  0
  -21.1914   21.3446  -13.3663 C   0  0  0  0  0  0
  -22.1575   20.1415  -12.7230 C   0  0  0  0  0  0
  -22.7183   19.1396  -13.5575 N   0  0  0  0  0  0
  -22.5098   18.8200  -14.9437 C   0  0  0  0  0  0
  -23.4326   19.2824  -15.8772 C   0  0  0  0  0  0
  -24.6142   19.8890  -15.5371 N   0  0  0  0  0  0
  -25.3389   20.3875  -16.5572 C   0  0  0  0  0  0
  -24.9188   20.2774  -17.8631 C   0  0  0  0  0  0
  -23.7741   19.6427  -18.1998 N   0  0  0  0  0  0
  -23.0151   19.1400  -17.2155 C   0  0  0  0  0  0
  -21.8607   18.5843  -17.5766 N   0  0  0  0  0  0
  -21.0573   18.1257  -16.6216 C   0  0  0  0  0  0
  -19.8014   17.7609  -17.0194 N   0  0  0  0  0  0
  -18.8325   16.7962  -16.5046 C   0  0  0  0  0  0
  -17.4647   17.3119  -16.0909 C   0  0  0  0  0  0
  -17.3675   18.7016  -15.7734 C   0  0  0  0  0  0
  -16.0761   19.0609  -15.8431 C   0  0  0  0  0  0
  -14.9535   17.9411  -16.5866 C   0  0  0  0  0  0
  -13.7303   18.6752  -17.6116 O   0  0  0  0  0  0
  -13.9329   20.5676  -17.6201 C   0  0  0  0  0  0
  -15.5303   20.7974  -16.2895 O   0  0  0  0  0  0
  -14.9688   16.6396  -16.3550 C   0  0  0  0  0  0
  -16.2994   16.3288  -16.1059 C   0  0  0  0  0  0
  -21.3811   18.1999  -15.3350 N   0  0  0  0  0  0
  -22.7943   20.5456  -11.1879 C   0  0  0  0  0  0
  -22.6046   22.4991  -10.6155 C   0  0  0  0  0  0
  -21.7424   23.5648  -11.4873 C   0  0  0  0  0  0
  -21.1322   24.9110  -10.5919 Cl  0  0  0  0  0  0
  -20.9893   22.9289  -12.7476 C   0  0  0  0  0  0
  -23.1755   18.3737  -13.0722 H   0  0  0  0  0  0
  -19.5565   18.2359  -17.8786 H   0  0  0  0  0  0
  1  2  1  0  0  0
  2  3  2  0  0  0
  2 30  1  0  0  0
  3  4  1  0  0  0
  3 26  1  0  0  0
  4  5  1  0  0  0
  4 31  1  0  0  0
  5  6  2  0  0  0
  5 25  1  0  0  0
  6  7  1  0  0  0
  6 11  1  0  0  0
  7  8  2  0  0  0
  8  9  1  0  0  0
  9 10  2  0  0  0
 10 11  1  0  0  0
 11 12  2  0  0  0
 12 13  1  0  0  0
 13 14  1  0  0  0
 13 25  2  0  0  0
 14 15  1  0  0  0
 14 32  1  0  0  0
 15 16  1  0  0  0
 16 17  2  0  0  0
 16 24  1  0  0  0
 17 18  1  0  0  0
 18 19  2  0  0  0
 18 22  1  0  0  0
 19 20  1  0  0  0
 19 23  1  0  0  0
 20 21  1  0  0  0
 21 22  1  0  0  0
 23 24  2  0  0  0
 26 27  2  0  0  0
 27 28  1  0  0  0
 28 29  1  0  0  0
 28 30  2  0  0  0
M  END
>  <CHROM.0>
-63.75966678,-164.49818008,73.07631881,60.89765457,-31.00057504,-61.42559912
83.25185991,-167.72925466

>  <CHROM.1>
8.14979020,-99.14263814,-152.48811279,-121.50181420,21.97121599,-20.19615701
19.90400526,-15.07116367,-2.48898322,0.02456725,-2.31207334

>  <Name>
F2359-0551

>  <RI>
1.33308e+07

>  <Rbt.Current_Directory>
/home/adria/Escritorio/rDock_CMTR_LC/2pxcA_model/inputs_sah

>  <Rbt.Executable>
rbdock ($Id: //depot/dev/client3/rdock/2013.1/src/exe/rbdock.cxx#4 $)

>  <Rbt.Library>
libRbt.so (2013.1, Build901 2013/11/27)

>  <Rbt.Parameter_File>
/home/adria/Escritorio/rDock_2013.1_src/data/scripts/dock.prm

>  <Rbt.Receptor>
sah_rdock.prm

>  <SCORE>
-265.285

>  <SCORE.INTER>
-13.0861

>  <SCORE.INTER.CONST>
1

>  <SCORE.INTER.POLAR>
-1.4684

>  <SCORE.INTER.REPUL>
0.911262

>  <SCORE.INTER.ROT>
5

>  <SCORE.INTER.VDW>
-23.0499

>  <SCORE.INTER.norm>
-0.436204

>  <SCORE.INTRA>
-245.776

>  <SCORE.INTRA.DIHEDRAL>
10.2982

>  <SCORE.INTRA.DIHEDRAL.0>
9.58136

>  <SCORE.INTRA.POLAR>
0

>  <SCORE.INTRA.POLAR.0>
0

>  <SCORE.INTRA.REPUL>
0

>  <SCORE.INTRA.REPUL.0>
0

>  <SCORE.INTRA.VDW>
-250.925

>  <SCORE.INTRA.VDW.0>
248.381

>  <SCORE.INTRA.norm>
-8.19254

>  <SCORE.RESTR>
0

>  <SCORE.RESTR.CAVITY>
0

>  <SCORE.RESTR.norm>
0

>  <SCORE.SYSTEM>
-6.42229

>  <SCORE.SYSTEM.CONST>
0

>  <SCORE.SYSTEM.DIHEDRAL>
6.4116

>  <SCORE.SYSTEM.POLAR>
-3.71338

>  <SCORE.SYSTEM.VDW>
2.9974

>  <SCORE.SYSTEM.norm>
-0.214076

>  <SCORE.heavy>
30

>  <SCORE.norm>
-8.84282

$$$$
F2359-0551
  rDOCK(R)          3D
libRbt.so/2013.1/901 2013/11/27
 32 36  0  0  0  0  0  0  0  0999 V2000
  -21.1416   22.9086  -13.5581 C   0  0  0  0  0  0
  -20.5396   21.6118  -13.1174 C   0  0  0  0  0  0
  -21.3724   20.6804  -12.0067 C   0  0  0  0  0  0
  -22.0148   21.2827  -10.8936 N   0  0  0  0  0  0
  -22.7086   22.5335  -10.7491 C   0  0  0  0  0  0
  -21.9579   23.7017  -10.6549 C   0  0  0  0  0  0
  -20.5925   23.7159  -10.5314 N   0  0  0  0  0  0
  -20.0068   24.9282  -10.5747 C   0  0  0  0  0  0
  -20.7435   26.0815  -10.7195 C   0  0  0  0  0  0
  -22.0926   26.0685  -10.7996 N   0  0  0  0  0  0
  -22.7176   24.8827  -10.7715 C   0  0  0  0  0  0
  -24.0400   24.9013  -10.9237 N   0  0  0  0  0  0
  -24.6859   23.7396  -10.9568 C   0  0  0  0  0  0
  -26.0011   23.7959  -11.3250 N   0  0  0  0  0  0
  -27.0584   22.7910  -11.4060 C   0  0  0  0  0  0
  -26.7462   21.4842  -12.1150 C   0  0  0  0  0  0
  -27.0481   20.2788  -11.4098 C   0  0  0  0  0  0
  -26.3509   19.2771  -11.9686 C   0  0  0  0  0  0
  -25.0772   19.6951  -13.0956 C   0  0  0  0  0  0
  -23.6156   18.7291  -12.9672 O   0  0  0  0  0  0
  -23.8187   17.4116  -11.6087 C   0  0  0  0  0  0
  -25.7879   17.7726  -11.0030 O   0  0  0  0  0  0
  -25.2101   20.6245  -14.0263 C   0  0  0  0  0  0
  -26.0841   21.5593  -13.4864 C   0  0  0  0  0  0
  -24.0512   22.5787  -10.8334 N   0  0  0  0  0  0
  -20.9238   19.0304  -12.0489 C   0  0  0  0  0  0
  -19.2387   18.5779  -13.1144 C   0  0  0  0  0  0
  -18.4727   19.6920  -14.0152 C   0  0  0  0  0  0
  -17.5350   19.0529  -15.3184 Cl  0  0  0  0  0  0
  -19.2060   21.1130  -14.0694 C   0  0  0  0  0  0
  -22.2267   20.6576  -10.1218 H   0  0  0  0  0  0
  -26.2687   24.7529  -11.5159 H   0  0  0  0  0  0
  1  2  1  0  0  0
  2  3  2  0  0  0
  2 30  1  0  0  0
  3  4  1  0  0  0
  3 26  1  0  0  0
  4  5  1  0  0  0
  4 31  1  0  0  0
  5  6  2  0  0  0
  5 25  1  0  0  0
  6  7  1  0  0  0
  6 11  1  0  0  0
  7  8  2  0  0  0
  8  9  1  0  0  0
  9 10  2  0  0  0
 10 11  1  0  0  0
 11 12  2  0  0  0
 12 13  1  0  0  0
 13 14  1  0  0  0
 13 25  2  0  0  0
 14 15  1  0  0  0
 14 32  1  0  0  0
 15 16  1  0  0  0
 16 17  2  0  0  0
 16 24  1  0  0  0
 17 18  1  0  0  0
 18 19  2  0  0  0
 18 22  1  0  0  0
 19 20  1  0  0  0
 19 23  1  0  0  0
 20 21  1  0  0  0
 21 22  1  0  0  0
 23 24  2  0  0  0
 26 27  2  0  0  0
 27 28  1  0  0  0
 28 29  1  0  0  0
 28 30  2  0  0  0
M  END
>  <CHROM.0>
177.81817006,-71.11259476,-165.21977904,-61.24683794,-30.48758736,-58.08581496
81.81633424,-167.72105305

>  <CHROM.1>
36.19335878,-76.53565603,-175.64880699,-48.47678672,128.82136828,-22.64413565
21.52532871,-12.16383153,-0.44185990,0.22246314,0.36037143

>  <Name>
F2359-0551

>  <RI>
1.33308e+07

>  <Rbt.Current_Directory>
/home/adria/Escritorio/rDock_CMTR_LC/2pxcA_model/inputs_sah

>  <Rbt.Executable>
rbdock ($Id: //depot/dev/client3/rdock/2013.1/src/exe/rbdock.cxx#4 $)

>  <Rbt.Library>
libRbt.so (2013.1, Build901 2013/11/27)

>  <Rbt.Parameter_File>
/home/adria/Escritorio/rDock_2013.1_src/data/scripts/dock.prm

>  <Rbt.Receptor>
sah_rdock.prm

>  <SCORE>
-267.43

>  <SCORE.INTER>
-11.7554

>  <SCORE.INTER.CONST>
1

>  <SCORE.INTER.POLAR>
-1.60312

>  <SCORE.INTER.REPUL>
0.0448468

>  <SCORE.INTER.ROT>
5

>  <SCORE.INTER.VDW>
-16.9291

>  <SCORE.INTER.norm>
-0.391848

>  <SCORE.INTRA>
-248.957

>  <SCORE.INTRA.DIHEDRAL>
6.95431

>  <SCORE.INTRA.DIHEDRAL.0>
9.58136

>  <SCORE.INTRA.POLAR>
0

>  <SCORE.INTRA.POLAR.0>
0

>  <SCORE.INTRA.REPUL>
0

>  <SCORE.INTRA.REPUL.0>
0

>  <SCORE.INTRA.VDW>
-252.434

>  <SCORE.INTRA.VDW.0>
248.381

>  <SCORE.INTRA.norm>
-8.29856

>  <SCORE.RESTR>
0

>  <SCORE.RESTR.CAVITY>
0

>  <SCORE.RESTR.norm>
0

>  <SCORE.SYSTEM>
-6.71791

>  <SCORE.SYSTEM.CONST>
0

>  <SCORE.SYSTEM.DIHEDRAL>
5.92247

>  <SCORE.SYSTEM.POLAR>
-3.83911

>  <SCORE.SYSTEM.REPUL>
0.0349923

>  <SCORE.SYSTEM.VDW>
3.19885

>  <SCORE.SYSTEM.norm>
-0.22393

>  <SCORE.heavy>
30

>  <SCORE.norm>
-8.91434

$$$$
F2359-0551
  rDOCK(R)          3D
libRbt.so/2013.1/901 2013/11/27
 32 36  0  0  0  0  0  0  0  0999 V2000
  -19.4042   18.6965  -13.0420 C   0  0  0  0  0  0
  -19.2223   18.4649  -14.5088 C   0  0  0  0  0  0
  -18.6446   19.7194  -15.4507 C   0  0  0  0  0  0
  -19.1121   21.0454  -15.2562 N   0  0  0  0  0  0
  -20.1049   21.5913  -14.3712 C   0  0  0  0  0  0
  -21.2699   20.8624  -14.1508 C   0  0  0  0  0  0
  -21.5981   19.7301  -14.8508 N   0  0  0  0  0  0
  -22.6987   19.0747  -14.4341 C   0  0  0  0  0  0
  -23.4528   19.5292  -13.3765 C   0  0  0  0  0  0
  -23.1511   20.6679  -12.7141 N   0  0  0  0  0  0
  -22.0575   21.3476  -13.0879 C   0  0  0  0  0  0
  -21.7501   22.4252  -12.3694 N   0  0  0  0  0  0
  -20.6413   23.0913  -12.6773 C   0  0  0  0  0  0
  -20.2554   24.0554  -11.7883 N   0  0  0  0  0  0
  -20.9743   24.8225  -10.7740 C   0  0  0  0  0  0
  -22.4596   25.0638  -10.9832 C   0  0  0  0  0  0
  -23.3466   24.5175  -10.0054 C   0  0  0  0  0  0
  -24.5762   24.4541  -10.5399 C   0  0  0  0  0  0
  -24.7317   24.6949  -12.2675 C   0  0  0  0  0  0
  -25.8856   23.6416  -13.0706 O   0  0  0  0  0  0
  -26.7189   22.4945  -11.8009 C   0  0  0  0  0  0
  -25.8388   23.1674  -10.0269 O   0  0  0  0  0  0
  -24.0837   25.6390  -12.9282 C   0  0  0  0  0  0
  -22.8887   25.8105  -12.2415 C   0  0  0  0  0  0
  -19.8509   22.7163  -13.6775 N   0  0  0  0  0  0
  -17.9249   19.1845  -16.9071 C   0  0  0  0  0  0
  -18.2451   17.2288  -17.4095 C   0  0  0  0  0  0
  -18.9876   16.1974  -16.3975 C   0  0  0  0  0  0
  -18.6003   14.5316  -16.6448 Cl  0  0  0  0  0  0
  -19.3403   16.8184  -14.9658 C   0  0  0  0  0  0
  -18.5147   21.7772  -15.6287 H   0  0  0  0  0  0
  -19.2540   24.1928  -11.8364 H   0  0  0  0  0  0
  1  2  1  0  0  0
  2  3  2  0  0  0
  2 30  1  0  0  0
  3  4  1  0  0  0
  3 26  1  0  0  0
  4  5  1  0  0  0
  4 31  1  0  0  0
  5  6  2  0  0  0
  5 25  1  0  0  0
  6  7  1  0  0  0
  6 11  1  0  0  0
  7  8  2  0  0  0
  8  9  1  0  0  0
  9 10  2  0  0  0
 10 11  1  0  0  0
 11 12  2  0  0  0
 12 13  1  0  0  0
 13 14  1  0  0  0
 13 25  2  0  0  0
 14 15  1  0  0  0
 14 32  1  0  0  0
 15 16  1  0  0  0
 16 17  2  0  0  0
 16 24  1  0  0  0
 17 18  1  0  0  0
 18 19  2  0  0  0
 18 22  1  0  0  0
 19 20  1  0  0  0
 19 23  1  0  0  0
 20 21  1  0  0  0
 21 22  1  0  0  0
 23 24  2  0  0  0
 26 27  2  0  0  0
 27 28  1  0  0  0
 28 29  1  0  0  0
 28 30  2  0  0  0
M  END
>  <CHROM.0>
-62.21435260,-75.94682541,-47.42105786,65.22453444,-30.03104223,179.98260276
-38.93526224,-162.15338536

>  <CHROM.1>
-2.77474717,-38.96789739,-22.34623294,-27.21144358,117.84436158,-21.48082506
21.04728051,-13.55827800,-1.02393254,0.27035006,0.38890478

>  <Name>
F2359-0551

>  <RI>
1.33308e+07

>  <Rbt.Current_Directory>
/home/adria/Escritorio/rDock_CMTR_LC/2pxcA_model/inputs_sah

>  <Rbt.Executable>
rbdock ($Id: //depot/dev/client3/rdock/2013.1/src/exe/rbdock.cxx#4 $)

>  <Rbt.Library>
libRbt.so (2013.1, Build901 2013/11/27)

>  <Rbt.Parameter_File>
/home/adria/Escritorio/rDock_2013.1_src/data/scripts/dock.prm

>  <Rbt.Receptor>
sah_rdock.prm

>  <SCORE>
-273.607

>  <SCORE.INTER>
-15.3765

>  <SCORE.INTER.CONST>
1

>  <SCORE.INTER.POLAR>
-0.872401

>  <SCORE.INTER.REPUL>
3.87368e-05

>  <SCORE.INTER.ROT>
5

>  <SCORE.INTER.VDW>
-22.8105

>  <SCORE.INTER.norm>
-0.512549

>  <SCORE.INTRA>
-250.594

>  <SCORE.INTRA.DIHEDRAL>
1.77702

>  <SCORE.INTRA.DIHEDRAL.0>
9.58136

>  <SCORE.INTRA.POLAR>
0

>  <SCORE.INTRA.POLAR.0>
0

>  <SCORE.INTRA.REPUL>
0

>  <SCORE.INTRA.REPUL.0>
0

>  <SCORE.INTRA.VDW>
-251.482

>  <SCORE.INTRA.VDW.0>
248.381

>  <SCORE.INTRA.norm>
-8.35312

>  <SCORE.RESTR>
0

>  <SCORE.RESTR.CAVITY>
0

>  <SCORE.RESTR.norm>
0

>  <SCORE.SYSTEM>
-7.63695

>  <SCORE.SYSTEM.CONST>
0

>  <SCORE.SYSTEM.DIHEDRAL>
6.75159

>  <SCORE.SYSTEM.POLAR>
-4.02113

>  <SCORE.SYSTEM.REPUL>
0.0433679

>  <SCORE.SYSTEM.VDW>
2.44227

>  <SCORE.SYSTEM.norm>
-0.254565

>  <SCORE.heavy>
30

>  <SCORE.norm>
-9.12023

$$$$
F2359-0551
  rDOCK(R)          3D
libRbt.so/2013.1/901 2013/11/27
 32 36  0  0  0  0  0  0  0  0999 V2000
  -23.1973   17.5429  -15.2180 C   0  0  0  0  0  0
  -22.4793   17.6567  -13.9104 C   0  0  0  0  0  0
  -20.8158   17.8217  -13.9235 C   0  0  0  0  0  0
  -20.0191   17.0535  -14.8121 N   0  0  0  0  0  0
  -19.2189   17.4257  -15.9471 C   0  0  0  0  0  0
  -18.7121   18.7206  -16.0055 C   0  0  0  0  0  0
  -19.0621   19.7108  -15.1242 N   0  0  0  0  0  0
  -18.3914   20.8729  -15.2427 C   0  0  0  0  0  0
  -17.4234   21.0534  -16.2040 C   0  0  0  0  0  0
  -17.1088   20.0902  -17.0983 N   0  0  0  0  0  0
  -17.7439   18.9126  -17.0111 C   0  0  0  0  0  0
  -17.3601   17.9632  -17.8615 N   0  0  0  0  0  0
  -17.9297   16.7655  -17.7662 C   0  0  0  0  0  0
  -17.3596   15.7703  -18.5100 N   0  0  0  0  0  0
  -17.7269   14.3793  -18.7639 C   0  0  0  0  0  0
  -17.4214   13.3537  -17.6855 C   0  0  0  0  0  0
  -18.4787   13.0360  -16.7785 C   0  0  0  0  0  0
  -17.9418   12.4688  -15.6868 C   0  0  0  0  0  0
  -16.2049   12.5649  -15.4842 C   0  0  0  0  0  0
  -15.6571   12.8669  -13.8427 O   0  0  0  0  0  0
  -17.1482   12.9826  -12.6656 C   0  0  0  0  0  0
  -18.7229   12.6011  -13.9882 O   0  0  0  0  0  0
  -15.3486   12.3637  -16.4711 C   0  0  0  0  0  0
  -16.0049   12.7936  -17.6172 C   0  0  0  0  0  0
  -18.8663   16.5027  -16.8610 N   0  0  0  0  0  0
  -20.2038   18.5314  -12.4928 C   0  0  0  0  0  0
  -21.5071   18.6730  -10.9240 C   0  0  0  0  0  0
  -23.0799   18.2987  -11.0836 C   0  0  0  0  0  0
  -24.1292   19.0708   -9.9483 Cl  0  0  0  0  0  0
  -23.5188   17.9194  -12.5747 C   0  0  0  0  0  0
  -19.7793   16.1215  -14.4876 H   0  0  0  0  0  0
  -16.5585   16.1277  -19.0143 H   0  0  0  0  0  0
  1  2  1  0  0  0
  2  3  2  0  0  0
  2 30  1  0  0  0
  3  4  1  0  0  0
  3 26  1  0  0  0
  4  5  1  0  0  0
  4 31  1  0  0  0
  5  6  2  0  0  0
  5 25  1  0  0  0
  6  7  1  0  0  0
  6 11  1  0  0  0
  7  8  2  0  0  0
  8  9  1  0  0  0
  9 10  2  0  0  0
 10 11  1  0  0  0
 11 12  2  0  0  0
 12 13  1  0  0  0
 13 14  1  0  0  0
 13 25  2  0  0  0
 14 15  1  0  0  0
 14 32  1  0  0  0
 15 16  1  0  0  0
 16 17  2  0  0  0
 16 24  1  0  0  0
 17 18  1  0  0  0
 18 19  2  0  0  0
 18 22  1  0  0  0
 19 20  1  0  0  0
 19 23  1  0  0  0
 20 21  1  0  0  0
 21 22  1  0  0  0
 23 24  2  0  0  0
 26 27  2  0  0  0
 27 28  1  0  0  0
 28 29  1  0  0  0
 28 30  2  0  0  0
M  END
>  <CHROM.0>
-60.62127410,-72.48624683,73.48986082,64.54956533,-30.89533667,-176.15398470
82.23494229,-161.79050120

>  <CHROM.1>
112.52009646,25.68258252,-174.55186089,-78.27373943,95.50057079,-19.20511192
16.61850476,-14.97361139,-2.82679473,-0.83119964,2.76322334

>  <Name>
F2359-0551

>  <RI>
1.33308e+07

>  <Rbt.Current_Directory>
/home/adria/Escritorio/rDock_CMTR_LC/2pxcA_model/inputs_sah

>  <Rbt.Executable>
rbdock ($Id: //depot/dev/client3/rdock/2013.1/src/exe/rbdock.cxx#4 $)

>  <Rbt.Library>
libRbt.so (2013.1, Build901 2013/11/27)

>  <Rbt.Parameter_File>
/home/adria/Escritorio/rDock_2013.1_src/data/scripts/dock.prm

>  <Rbt.Receptor>
sah_rdock.prm

>  <SCORE>
-268.097

>  <SCORE.INTER>
-14.1815

>  <SCORE.INTER.CONST>
1

>  <SCORE.INTER.POLAR>
-1.14055

>  <SCORE.INTER.REPUL>
0

>  <SCORE.INTER.ROT>
5

>  <SCORE.INTER.VDW>
-20.7036

>  <SCORE.INTER.norm>
-0.472717

>  <SCORE.INTRA>
-246.294

>  <SCORE.INTRA.DIHEDRAL>
9.24799

>  <SCORE.INTRA.DIHEDRAL.0>
9.58136

>  <SCORE.INTRA.POLAR>
0

>  <SCORE.INTRA.POLAR.0>
0

>  <SCORE.INTRA.REPUL>
0

>  <SCORE.INTRA.REPUL.0>
0

>  <SCORE.INTRA.VDW>
-250.918

>  <SCORE.INTRA.VDW.0>
248.381

>  <SCORE.INTRA.norm>
-8.2098

>  <SCORE.RESTR>
0.0903297

>  <SCORE.RESTR.CAVITY>
0.0903297

>  <SCORE.RESTR.norm>
0.00301099

>  <SCORE.SYSTEM>
-7.71183

>  <SCORE.SYSTEM.CONST>
0

>  <SCORE.SYSTEM.DIHEDRAL>
6.30141

>  <SCORE.SYSTEM.POLAR>
-4.02961

>  <SCORE.SYSTEM.REPUL>
0.0376052

>  <SCORE.SYSTEM.VDW>
2.6501

>  <SCORE.SYSTEM.norm>
-0.257061

>  <SCORE.heavy>
30

>  <SCORE.norm>
-8.93657

$$$$
