F1359-1163
  rDOCK(R)          3D
libRbt.so/2013.1/901 2013/11/27
 28 30  0  0  0  0  0  0  0  0999 V2000
  -25.7455   19.7265  -11.5003 C   0  0  0  0  0  0
  -24.9886   19.4734  -12.6678 O   0  0  0  0  0  0
  -24.2126   18.2716  -12.6060 C   0  0  0  0  0  0
  -22.9735   18.3859  -11.6994 C   0  0  0  0  0  0
  -21.9791   19.2822  -12.1949 N   0  0  0  0  0  0
  -22.1047   20.6468  -11.8510 C   0  0  0  0  0  0
  -21.5567   21.6515  -13.2002 C   0  0  0  0  0  0
  -19.8487   20.2875  -12.8944 S   0  0  0  0  0  0
  -21.0231   19.0533  -13.1711 C   0  0  0  0  0  0
  -20.8696   18.2896  -14.1948 N   0  0  0  0  0  0
  -19.7606   18.6197  -14.9946 C   0  0  0  0  0  0
  -19.4140   19.7847  -15.1956 O   0  0  0  0  0  0
  -18.9207   17.4121  -15.5880 C   0  0  0  0  0  0
  -17.8460   17.4242  -16.8184 C   0  0  0  0  0  0
  -17.3896   16.1886  -17.7845 C   0  0  0  0  0  0
  -18.0963   14.5581  -17.4461 C   0  0  0  0  0  0
  -16.9123   13.1349  -17.2757 C   0  0  0  0  0  0
  -15.0061   13.5415  -17.9012 C   0  0  0  0  0  0
  -14.5884   15.1487  -18.4560 C   0  0  0  0  0  0
  -15.7255   16.4096  -18.3126 C   0  0  0  0  0  0
  -21.6452   23.6981  -13.1016 C   0  0  0  0  0  0
  -22.1837   24.3054  -11.4451 C   0  0  0  0  0  0
  -22.6477   23.1285  -10.1856 C   0  0  0  0  0  0
  -22.6294   21.3857  -10.4196 C   0  0  0  0  0  0
  -21.7718   25.8512  -10.7419 S   0  0  0  0  0  0
  -21.7757   26.8302  -11.8180 O   0  0  0  0  0  0
  -22.5828   26.0355   -9.5611 O   0  0  0  0  0  0
  -20.0978   25.4991  -10.3382 C   0  0  0  0  0  0
  1  2  1  0  0  0
  2  3  1  0  0  0
  3  4  1  0  0  0
  4  5  1  0  0  0
  5  6  1  0  0  0
  5  9  1  0  0  0
  6  7  2  0  0  0
  6 24  1  0  0  0
  7  8  1  0  0  0
  7 21  1  0  0  0
  8  9  1  0  0  0
  9 10  2  0  0  0
 10 11  1  0  0  0
 11 12  2  0  0  0
 11 13  1  0  0  0
 13 14  1  0  0  0
 14 15  1  0  0  0
 15 16  2  0  0  0
 15 20  1  0  0  0
 16 17  1  0  0  0
 17 18  2  0  0  0
 18 19  1  0  0  0
 19 20  2  0  0  0
 21 22  2  0  0  0
 22 23  1  0  0  0
 22 25  1  0  0  0
 23 24  2  0  0  0
 25 26  2  0  0  0
 25 27  2  0  0  0
 25 28  1  0  0  0
M  END
>  <CHROM.0>
40.11480308,67.94032423,-127.89403640,-60.52043149,-29.82987372,-177.41781630
-157.05601121,-160.96123549

>  <CHROM.1>
-74.06625955,-67.18576626,87.04726121,-36.88643188,163.05662037,-155.51512330
-2.49742509,37.46862119,-20.61552566,20.17757532,-13.45667734,2.09767436
0.48339512,0.35958548

>  <Name>
F1359-1163

>  <RI>
1.54607e+07

>  <Rbt.Current_Directory>
/home/adria/Escritorio/rDock_CMTR_LC/2pxcA_model/inputs_sah

>  <Rbt.Executable>
rbdock ($Id: //depot/dev/client3/rdock/2013.1/src/exe/rbdock.cxx#4 $)

>  <Rbt.Library>
libRbt.so (2013.1, Build901 2013/11/27)

>  <Rbt.Parameter_File>
/home/adria/Escritorio/rDock_2013.1_src/data/scripts/dock.prm

>  <Rbt.Receptor>
sah_rdock.prm

>  <SCORE>
-300.123

>  <SCORE.INTER>
-13.9089

>  <SCORE.INTER.CONST>
1

>  <SCORE.INTER.POLAR>
-1.87617

>  <SCORE.INTER.REPUL>
0.034997

>  <SCORE.INTER.ROT>
8

>  <SCORE.INTER.VDW>
-21.1049

>  <SCORE.INTER.norm>
-0.496745

>  <SCORE.INTRA>
-283.87

>  <SCORE.INTRA.DIHEDRAL>
-30.0092

>  <SCORE.INTRA.DIHEDRAL.0>
56.9892

>  <SCORE.INTRA.POLAR>
0

>  <SCORE.INTRA.POLAR.0>
0

>  <SCORE.INTRA.REPUL>
0

>  <SCORE.INTRA.REPUL.0>
0

>  <SCORE.INTRA.VDW>
-268.865

>  <SCORE.INTRA.VDW.0>
274.289

>  <SCORE.INTRA.norm>
-10.1382

>  <SCORE.RESTR>
0

>  <SCORE.RESTR.CAVITY>
0

>  <SCORE.RESTR.norm>
0

>  <SCORE.SYSTEM>
-2.34482

>  <SCORE.SYSTEM.CONST>
0

>  <SCORE.SYSTEM.DIHEDRAL>
10.8472

>  <SCORE.SYSTEM.POLAR>
-4.21638

>  <SCORE.SYSTEM.REPUL>
0.122812

>  <SCORE.SYSTEM.VDW>
5.95319

>  <SCORE.SYSTEM.norm>
-0.0837436

>  <SCORE.heavy>
28

>  <SCORE.norm>
-10.7187

$$$$
F1359-1163
  rDOCK(R)          3D
libRbt.so/2013.1/901 2013/11/27
 28 30  0  0  0  0  0  0  0  0999 V2000
  -24.2554   16.2845  -14.6011 C   0  0  0  0  0  0
  -23.6289   16.7771  -13.4328 O   0  0  0  0  0  0
  -22.4888   17.6038  -13.6914 C   0  0  0  0  0  0
  -21.7950   18.1113  -12.4142 C   0  0  0  0  0  0
  -20.8466   19.1519  -12.6495 N   0  0  0  0  0  0
  -21.2079   20.4609  -12.2594 C   0  0  0  0  0  0
  -20.5454   21.6278  -13.4125 C   0  0  0  0  0  0
  -18.7675   20.4460  -12.8524 S   0  0  0  0  0  0
  -19.7012   19.1132  -13.4277 C   0  0  0  0  0  0
  -19.2597   18.4578  -14.4428 N   0  0  0  0  0  0
  -18.0699   18.9755  -14.9857 C   0  0  0  0  0  0
  -17.8467   20.1851  -15.0552 O   0  0  0  0  0  0
  -16.9803   17.9235  -15.4565 C   0  0  0  0  0  0
  -17.1223   16.7367  -16.5704 C   0  0  0  0  0  0
  -17.8031   15.2611  -16.4054 C   0  0  0  0  0  0
  -18.6540   14.9024  -14.8498 C   0  0  0  0  0  0
  -18.1833   13.3381  -13.9622 C   0  0  0  0  0  0
  -17.0625   12.0378  -15.0772 C   0  0  0  0  0  0
  -16.5587   12.4778  -16.6952 C   0  0  0  0  0  0
  -16.8591   14.0536  -17.2700 C   0  0  0  0  0  0
  -20.9106   23.6363  -13.2156 C   0  0  0  0  0  0
  -21.8273   24.0417  -11.6671 C   0  0  0  0  0  0
  -22.3690   22.7212  -10.5950 C   0  0  0  0  0  0
  -22.0851   21.0166  -10.9207 C   0  0  0  0  0  0
  -21.7568   25.5618  -10.8081 S   0  0  0  0  0  0
  -21.6087   26.6135  -11.8024 O   0  0  0  0  0  0
  -22.8382   25.5852   -9.8511 O   0  0  0  0  0  0
  -20.1979   25.3318  -10.0294 C   0  0  0  0  0  0
  1  2  1  0  0  0
  2  3  1  0  0  0
  3  4  1  0  0  0
  4  5  1  0  0  0
  5  6  1  0  0  0
  5  9  1  0  0  0
  6  7  2  0  0  0
  6 24  1  0  0  0
  7  8  1  0  0  0
  7 21  1  0  0  0
  8  9  1  0  0  0
  9 10  2  0  0  0
 10 11  1  0  0  0
 11 12  2  0  0  0
 11 13  1  0  0  0
 13 14  1  0  0  0
 14 15  1  0  0  0
 15 16  2  0  0  0
 15 20  1  0  0  0
 16 17  1  0  0  0
 17 18  2  0  0  0
 18 19  1  0  0  0
 19 20  2  0  0  0
 21 22  2  0  0  0
 22 23  1  0  0  0
 22 25  1  0  0  0
 23 24  2  0  0  0
 25 26  2  0  0  0
 25 27  2  0  0  0
 25 28  1  0  0  0
M  END
>  <CHROM.0>
-61.97980486,-166.81433673,-163.80812111,-58.62589905,168.00553587,178.56901543
-36.32685974,-161.12825322

>  <CHROM.1>
-178.77012795,-167.37110028,106.72663529,-37.43363521,58.92434263,-79.95325510
6.06933944,34.51235164,-20.12414419,19.64794542,-13.32901462,1.22883490,-0.36944732
-2.84416232

>  <Name>
F1359-1163

>  <RI>
1.54607e+07

>  <Rbt.Current_Directory>
/home/adria/Escritorio/rDock_CMTR_LC/2pxcA_model/inputs_sah

>  <Rbt.Executable>
rbdock ($Id: //depot/dev/client3/rdock/2013.1/src/exe/rbdock.cxx#4 $)

>  <Rbt.Library>
libRbt.so (2013.1, Build901 2013/11/27)

>  <Rbt.Parameter_File>
/home/adria/Escritorio/rDock_2013.1_src/data/scripts/dock.prm

>  <Rbt.Receptor>
sah_rdock.prm

>  <SCORE>
-301.8

>  <SCORE.INTER>
-15.0878

>  <SCORE.INTER.CONST>
1

>  <SCORE.INTER.POLAR>
-1.86015

>  <SCORE.INTER.REPUL>
0

>  <SCORE.INTER.ROT>
8

>  <SCORE.INTER.VDW>
-22.1633

>  <SCORE.INTER.norm>
-0.53885

>  <SCORE.INTRA>
-285.637

>  <SCORE.INTRA.DIHEDRAL>
-31.6639

>  <SCORE.INTRA.DIHEDRAL.0>
56.9892

>  <SCORE.INTRA.POLAR>
0

>  <SCORE.INTRA.POLAR.0>
0

>  <SCORE.INTRA.REPUL>
0

>  <SCORE.INTRA.REPUL.0>
0

>  <SCORE.INTRA.VDW>
-269.805

>  <SCORE.INTRA.VDW.0>
274.289

>  <SCORE.INTRA.norm>
-10.2013

>  <SCORE.RESTR>
0

>  <SCORE.RESTR.CAVITY>
0

>  <SCORE.RESTR.norm>
0

>  <SCORE.SYSTEM>
-1.07457

>  <SCORE.SYSTEM.CONST>
0

>  <SCORE.SYSTEM.DIHEDRAL>
3.871

>  <SCORE.SYSTEM.POLAR>
-3.59857

>  <SCORE.SYSTEM.VDW>
9.22508

>  <SCORE.SYSTEM.norm>
-0.0383775

>  <SCORE.heavy>
28

>  <SCORE.norm>
-10.7786

$$$$
F1359-1163
  rDOCK(R)          3D
libRbt.so/2013.1/901 2013/11/27
 28 30  0  0  0  0  0  0  0  0999 V2000
  -24.1422   18.8347  -10.5365 C   0  0  0  0  0  0
  -25.2501   19.2470  -11.3128 O   0  0  0  0  0  0
  -25.1711   18.8566  -12.6881 C   0  0  0  0  0  0
  -24.3544   19.8300  -13.5575 C   0  0  0  0  0  0
  -23.0120   20.0146  -13.1084 N   0  0  0  0  0  0
  -22.6997   21.2408  -12.4800 C   0  0  0  0  0  0
  -21.0497   21.7201  -12.9017 C   0  0  0  0  0  0
  -20.7744   19.6611  -12.1565 S   0  0  0  0  0  0
  -21.8920   19.2563  -13.4079 C   0  0  0  0  0  0
  -21.4874   18.4863  -14.3555 N   0  0  0  0  0  0
  -20.1327   18.1203  -14.2576 C   0  0  0  0  0  0
  -19.6353   17.7019  -13.2110 O   0  0  0  0  0  0
  -19.2690   18.2092  -15.5848 C   0  0  0  0  0  0
  -19.2817   17.2123  -16.8790 C   0  0  0  0  0  0
  -18.7541   15.6698  -16.9819 C   0  0  0  0  0  0
  -18.3839   14.8082  -15.4348 C   0  0  0  0  0  0
  -16.7237   13.9831  -15.2953 C   0  0  0  0  0  0
  -15.7103   13.8178  -17.0661 C   0  0  0  0  0  0
  -16.3843   14.5012  -18.5303 C   0  0  0  0  0  0
  -17.7983   15.4480  -18.4427 C   0  0  0  0  0  0
  -20.2537   23.4856  -12.2263 C   0  0  0  0  0  0
  -21.3723   24.3640  -11.0518 C   0  0  0  0  0  0
  -22.9893   23.6907  -10.7075 C   0  0  0  0  0  0
  -23.6081   22.2116  -11.4300 C   0  0  0  0  0  0
  -20.8674   25.4653   -9.7924 S   0  0  0  0  0  0
  -21.0257   26.8156  -10.3103 O   0  0  0  0  0  0
  -21.5028   25.0580   -8.5611 O   0  0  0  0  0  0
  -19.1524   25.0807   -9.8029 C   0  0  0  0  0  0
  1  2  1  0  0  0
  2  3  1  0  0  0
  3  4  1  0  0  0
  4  5  1  0  0  0
  5  6  1  0  0  0
  5  9  1  0  0  0
  6  7  2  0  0  0
  6 24  1  0  0  0
  7  8  1  0  0  0
  7 21  1  0  0  0
  8  9  1  0  0  0
  9 10  2  0  0  0
 10 11  1  0  0  0
 11 12  2  0  0  0
 11 13  1  0  0  0
 13 14  1  0  0  0
 14 15  1  0  0  0
 15 16  2  0  0  0
 15 20  1  0  0  0
 16 17  1  0  0  0
 17 18  2  0  0  0
 18 19  1  0  0  0
 19 20  2  0  0  0
 21 22  2  0  0  0
 22 23  1  0  0  0
 22 25  1  0  0  0
 23 24  2  0  0  0
 25 26  2  0  0  0
 25 27  2  0  0  0
 25 28  1  0  0  0
M  END
>  <CHROM.0>
-60.40437621,-168.12709597,-166.45945700,62.20664006,25.88156417,-176.54704221
-157.46544105,-163.99010291

>  <CHROM.1>
-84.33305051,57.85934903,-106.40555473,48.17996305,-74.52242617,-69.50977867
12.64344608,98.00664399,-20.86466175,20.07204506,-12.99038996,1.91619892
0.28045130,0.51355988

>  <Name>
F1359-1163

>  <RI>
1.54607e+07

>  <Rbt.Current_Directory>
/home/adria/Escritorio/rDock_CMTR_LC/2pxcA_model/inputs_sah

>  <Rbt.Executable>
rbdock ($Id: //depot/dev/client3/rdock/2013.1/src/exe/rbdock.cxx#4 $)

>  <Rbt.Library>
libRbt.so (2013.1, Build901 2013/11/27)

>  <Rbt.Parameter_File>
/home/adria/Escritorio/rDock_2013.1_src/data/scripts/dock.prm

>  <Rbt.Receptor>
sah_rdock.prm

>  <SCORE>
-292.332

>  <SCORE.INTER>
-13.7305

>  <SCORE.INTER.CONST>
1

>  <SCORE.INTER.POLAR>
-1.72578

>  <SCORE.INTER.REPUL>
0

>  <SCORE.INTER.ROT>
8

>  <SCORE.INTER.VDW>
-21.2629

>  <SCORE.INTER.norm>
-0.490376

>  <SCORE.INTRA>
-284.1

>  <SCORE.INTRA.DIHEDRAL>
-23.4689

>  <SCORE.INTRA.DIHEDRAL.0>
56.9892

>  <SCORE.INTRA.POLAR>
0

>  <SCORE.INTRA.POLAR.0>
0

>  <SCORE.INTRA.REPUL>
0

>  <SCORE.INTRA.REPUL.0>
0

>  <SCORE.INTRA.VDW>
-272.366

>  <SCORE.INTRA.VDW.0>
274.289

>  <SCORE.INTRA.norm>
-10.1464

>  <SCORE.RESTR>
0

>  <SCORE.RESTR.CAVITY>
0

>  <SCORE.RESTR.norm>
0

>  <SCORE.SYSTEM>
5.49902

>  <SCORE.SYSTEM.CONST>
0

>  <SCORE.SYSTEM.DIHEDRAL>
7.01118

>  <SCORE.SYSTEM.POLAR>
-3.467

>  <SCORE.SYSTEM.VDW>
13.7812

>  <SCORE.SYSTEM.norm>
0.196394

>  <SCORE.heavy>
28

>  <SCORE.norm>
-10.4404

$$$$
F1359-1163
  rDOCK(R)          3D
libRbt.so/2013.1/901 2013/11/27
 28 30  0  0  0  0  0  0  0  0999 V2000
  -24.1479   18.4298  -16.8666 C   0  0  0  0  0  0
  -24.0405   18.5004  -15.4582 O   0  0  0  0  0  0
  -24.6974   19.6354  -14.8833 C   0  0  0  0  0  0
  -24.2634   19.9288  -13.4356 C   0  0  0  0  0  0
  -22.9078   20.3604  -13.3179 N   0  0  0  0  0  0
  -22.6615   21.5320  -12.5677 C   0  0  0  0  0  0
  -21.3258   22.4339  -13.2975 C   0  0  0  0  0  0
  -20.4652   20.4161  -13.0555 S   0  0  0  0  0  0
  -21.8021   19.9303  -14.0331 C   0  0  0  0  0  0
  -21.5539   19.4074  -15.1819 N   0  0  0  0  0  0
  -20.1859   19.3576  -15.5053 C   0  0  0  0  0  0
  -19.4110   20.2789  -15.2435 O   0  0  0  0  0  0
  -19.6565   18.0213  -16.1758 C   0  0  0  0  0  0
  -18.3384   17.8045  -17.1165 C   0  0  0  0  0  0
  -16.7701   18.0784  -16.7510 C   0  0  0  0  0  0
  -16.3745   19.5969  -15.8508 C   0  0  0  0  0  0
  -15.0389   20.6816  -16.5552 C   0  0  0  0  0  0
  -13.9224   19.8002  -18.0271 C   0  0  0  0  0  0
  -14.3149   18.1855  -18.5785 C   0  0  0  0  0  0
  -15.7273   17.4222  -18.0075 C   0  0  0  0  0  0
  -20.7131   24.2315  -12.5232 C   0  0  0  0  0  0
  -21.5854   24.6627  -10.9561 C   0  0  0  0  0  0
  -22.8764   23.5917  -10.3453 C   0  0  0  0  0  0
  -23.3902   22.1174  -11.1547 C   0  0  0  0  0  0
  -20.9515   25.6757   -9.6811 S   0  0  0  0  0  0
  -20.9410   27.0422  -10.1800 O   0  0  0  0  0  0
  -21.6351   25.3327   -8.4560 O   0  0  0  0  0  0
  -19.2969   25.0828   -9.6960 C   0  0  0  0  0  0
  1  2  1  0  0  0
  2  3  1  0  0  0
  3  4  1  0  0  0
  4  5  1  0  0  0
  5  6  1  0  0  0
  5  9  1  0  0  0
  6  7  2  0  0  0
  6 24  1  0  0  0
  7  8  1  0  0  0
  7 21  1  0  0  0
  8  9  1  0  0  0
  9 10  2  0  0  0
 10 11  1  0  0  0
 11 12  2  0  0  0
 11 13  1  0  0  0
 13 14  1  0  0  0
 14 15  1  0  0  0
 15 16  2  0  0  0
 15 20  1  0  0  0
 16 17  1  0  0  0
 17 18  2  0  0  0
 18 19  1  0  0  0
 19 20  2  0  0  0
 21 22  2  0  0  0
 22 23  1  0  0  0
 22 25  1  0  0  0
 23 24  2  0  0  0
 25 26  2  0  0  0
 25 27  2  0  0  0
 25 28  1  0  0  0
M  END
>  <CHROM.0>
37.69678964,-163.24038392,-128.65496871,-59.21817604,-28.45404244,-53.55717780
-36.62401859,-157.56346052

>  <CHROM.1>
-163.95907498,67.30190184,129.89007116,-39.93708985,156.63579044,60.05730017
-42.70097803,71.29941238,-20.42063996,21.20404711,-13.75102063,1.11456216
-0.21480367,-2.40614682

>  <Name>
F1359-1163

>  <RI>
1.54607e+07

>  <Rbt.Current_Directory>
/home/adria/Escritorio/rDock_CMTR_LC/2pxcA_model/inputs_sah

>  <Rbt.Executable>
rbdock ($Id: //depot/dev/client3/rdock/2013.1/src/exe/rbdock.cxx#4 $)

>  <Rbt.Library>
libRbt.so (2013.1, Build901 2013/11/27)

>  <Rbt.Parameter_File>
/home/adria/Escritorio/rDock_2013.1_src/data/scripts/dock.prm

>  <Rbt.Receptor>
sah_rdock.prm

>  <SCORE>
-302.436

>  <SCORE.INTER>
-16.2028

>  <SCORE.INTER.CONST>
1

>  <SCORE.INTER.POLAR>
-1.05175

>  <SCORE.INTER.REPUL>
0

>  <SCORE.INTER.ROT>
8

>  <SCORE.INTER.VDW>
-26.0268

>  <SCORE.INTER.norm>
-0.57867

>  <SCORE.INTRA>
-285.202

>  <SCORE.INTRA.DIHEDRAL>
-28.5809

>  <SCORE.INTRA.DIHEDRAL.0>
56.9892

>  <SCORE.INTRA.POLAR>
0

>  <SCORE.INTRA.POLAR.0>
0

>  <SCORE.INTRA.REPUL>
0

>  <SCORE.INTRA.REPUL.0>
0

>  <SCORE.INTRA.VDW>
-270.912

>  <SCORE.INTRA.VDW.0>
274.289

>  <SCORE.INTRA.norm>
-10.1858

>  <SCORE.RESTR>
0

>  <SCORE.RESTR.CAVITY>
0

>  <SCORE.RESTR.norm>
0

>  <SCORE.SYSTEM>
-1.03132

>  <SCORE.SYSTEM.CONST>
0

>  <SCORE.SYSTEM.DIHEDRAL>
12.7893

>  <SCORE.SYSTEM.POLAR>
-4.19692

>  <SCORE.SYSTEM.REPUL>
0.130241

>  <SCORE.SYSTEM.VDW>
6.19235

>  <SCORE.SYSTEM.norm>
-0.036833

>  <SCORE.heavy>
28

>  <SCORE.norm>
-10.8013

$$$$
F1359-1163
  rDOCK(R)          3D
libRbt.so/2013.1/901 2013/11/27
 28 30  0  0  0  0  0  0  0  0999 V2000
  -24.0063   18.9291  -14.8513 C   0  0  0  0  0  0
  -25.0024   18.4385  -13.9754 O   0  0  0  0  0  0
  -24.4916   17.6188  -12.9184 C   0  0  0  0  0  0
  -23.9380   18.4241  -11.7287 C   0  0  0  0  0  0
  -22.7032   19.0845  -12.0060 N   0  0  0  0  0  0
  -22.6385   20.4735  -11.7560 C   0  0  0  0  0  0
  -21.6141   21.2482  -12.9728 C   0  0  0  0  0  0
  -20.3167   19.6324  -12.2131 S   0  0  0  0  0  0
  -21.6123   18.6082  -12.7147 C   0  0  0  0  0  0
  -21.3793   17.7466  -13.6410 N   0  0  0  0  0  0
  -20.0749   17.8058  -14.1638 C   0  0  0  0  0  0
  -19.0745   17.8127  -13.4448 O   0  0  0  0  0  0
  -19.9355   17.8005  -15.7437 C   0  0  0  0  0  0
  -18.6282   18.1637  -16.6538 C   0  0  0  0  0  0
  -17.1630   17.4416  -16.6658 C   0  0  0  0  0  0
  -15.7143   18.4947  -16.9205 C   0  0  0  0  0  0
  -14.5173   17.9899  -18.2505 C   0  0  0  0  0  0
  -14.7957   16.0910  -18.9622 C   0  0  0  0  0  0
  -16.1288   15.1200  -18.3746 C   0  0  0  0  0  0
  -17.2872   15.8207  -17.3397 C   0  0  0  0  0  0
  -21.3266   23.2789  -12.9786 C   0  0  0  0  0  0
  -22.1014   24.1087  -11.5247 C   0  0  0  0  0  0
  -23.0584   23.1428  -10.3681 C   0  0  0  0  0  0
  -23.3235   21.4112  -10.5223 C   0  0  0  0  0  0
  -21.5709   25.6098  -10.8044 S   0  0  0  0  0  0
  -21.4456   26.5836  -11.8779 O   0  0  0  0  0  0
  -22.4014   25.8708   -9.6520 O   0  0  0  0  0  0
  -19.9523   25.1026  -10.3439 C   0  0  0  0  0  0
  1  2  1  0  0  0
  2  3  1  0  0  0
  3  4  1  0  0  0
  4  5  1  0  0  0
  5  6  1  0  0  0
  5  9  1  0  0  0
  6  7  2  0  0  0
  6 24  1  0  0  0
  7  8  1  0  0  0
  7 21  1  0  0  0
  8  9  1  0  0  0
  9 10  2  0  0  0
 10 11  1  0  0  0
 11 12  2  0  0  0
 11 13  1  0  0  0
 13 14  1  0  0  0
 14 15  1  0  0  0
 15 16  2  0  0  0
 15 20  1  0  0  0
 16 17  1  0  0  0
 17 18  2  0  0  0
 18 19  1  0  0  0
 19 20  2  0  0  0
 21 22  2  0  0  0
 22 23  1  0  0  0
 22 25  1  0  0  0
 23 24  2  0  0  0
 25 26  2  0  0  0
 25 27  2  0  0  0
 25 28  1  0  0  0
M  END
>  <CHROM.0>
177.35327886,-71.42136942,76.31830416,65.81573797,-30.65869235,-56.08261450
83.79737386,-165.15313237

>  <CHROM.1>
81.93380089,-71.91055274,126.38646487,49.99979309,166.10980826,60.38116180
-143.94859232,50.79278320,-20.67931316,20.22716030,-13.44819267,1.01268005
-0.45916021,-2.70878544

>  <Name>
F1359-1163

>  <RI>
1.54607e+07

>  <Rbt.Current_Directory>
/home/adria/Escritorio/rDock_CMTR_LC/2pxcA_model/inputs_sah

>  <Rbt.Executable>
rbdock ($Id: //depot/dev/client3/rdock/2013.1/src/exe/rbdock.cxx#4 $)

>  <Rbt.Library>
libRbt.so (2013.1, Build901 2013/11/27)

>  <Rbt.Parameter_File>
/home/adria/Escritorio/rDock_2013.1_src/data/scripts/dock.prm

>  <Rbt.Receptor>
sah_rdock.prm

>  <SCORE>
-309.554

>  <SCORE.INTER>
-18.2437

>  <SCORE.INTER.CONST>
1

>  <SCORE.INTER.POLAR>
-2.5756

>  <SCORE.INTER.REPUL>
0

>  <SCORE.INTER.ROT>
8

>  <SCORE.INTER.VDW>
-22.8867

>  <SCORE.INTER.norm>
-0.65156

>  <SCORE.INTRA>
-284.102

>  <SCORE.INTRA.DIHEDRAL>
-22.2949

>  <SCORE.INTRA.DIHEDRAL.0>
56.9892

>  <SCORE.INTRA.POLAR>
0

>  <SCORE.INTRA.POLAR.0>
0

>  <SCORE.INTRA.REPUL>
0

>  <SCORE.INTRA.REPUL.0>
0

>  <SCORE.INTRA.VDW>
-272.954

>  <SCORE.INTRA.VDW.0>
274.289

>  <SCORE.INTRA.norm>
-10.1465

>  <SCORE.RESTR>
0

>  <SCORE.RESTR.CAVITY>
0

>  <SCORE.RESTR.norm>
0

>  <SCORE.SYSTEM>
-7.20814

>  <SCORE.SYSTEM.CONST>
0

>  <SCORE.SYSTEM.DIHEDRAL>
6.49746

>  <SCORE.SYSTEM.POLAR>
-4.00499

>  <SCORE.SYSTEM.REPUL>
0.0355954

>  <SCORE.SYSTEM.VDW>
2.98213

>  <SCORE.SYSTEM.norm>
-0.257434

>  <SCORE.heavy>
28

>  <SCORE.norm>
-11.0555

$$$$
F1359-1163
  rDOCK(R)          3D
libRbt.so/2013.1/901 2013/11/27
 28 30  0  0  0  0  0  0  0  0999 V2000
  -25.0253   17.8740  -17.2714 C   0  0  0  0  0  0
  -24.3106   19.0830  -17.1054 O   0  0  0  0  0  0
  -23.6382   19.1903  -15.8458 C   0  0  0  0  0  0
  -22.3250   18.3894  -15.7798 C   0  0  0  0  0  0
  -21.4951   18.7360  -14.6713 N   0  0  0  0  0  0
  -22.1367   19.0536  -13.4533 C   0  0  0  0  0  0
  -21.2329   20.3265  -12.6210 C   0  0  0  0  0  0
  -19.6736   18.8174  -13.0239 S   0  0  0  0  0  0
  -20.1437   19.0408  -14.6695 C   0  0  0  0  0  0
  -19.2702   19.5062  -15.4911 N   0  0  0  0  0  0
  -18.0369   19.8266  -14.8955 C   0  0  0  0  0  0
  -17.9555   20.3267  -13.7724 O   0  0  0  0  0  0
  -16.7290   19.4561  -15.7126 C   0  0  0  0  0  0
  -16.6087   18.7246  -17.1685 C   0  0  0  0  0  0
  -16.9312   17.1713  -17.5578 C   0  0  0  0  0  0
  -17.9515   16.2163  -16.4090 C   0  0  0  0  0  0
  -17.2953   14.5672  -15.8554 C   0  0  0  0  0  0
  -15.7016   13.8832  -16.9428 C   0  0  0  0  0  0
  -15.0192   14.8715  -18.2167 C   0  0  0  0  0  0
  -15.5759   16.4675  -18.4323 C   0  0  0  0  0  0
  -21.8905   21.1014  -10.8395 C   0  0  0  0  0  0
  -23.3725   20.2184  -10.1864 C   0  0  0  0  0  0
  -24.1159   18.9147  -11.1531 C   0  0  0  0  0  0
  -23.5209   18.4011  -12.7261 C   0  0  0  0  0  0
  -23.8245   20.0907   -8.5032 S   0  0  0  0  0  0
  -23.6624   18.6975   -8.1170 O   0  0  0  0  0  0
  -23.1589   21.1488   -7.7800 O   0  0  0  0  0  0
  -25.5443   20.4036   -8.6863 C   0  0  0  0  0  0
  1  2  1  0  0  0
  2  3  1  0  0  0
  3  4  1  0  0  0
  4  5  1  0  0  0
  5  6  1  0  0  0
  5  9  1  0  0  0
  6  7  2  0  0  0
  6 24  1  0  0  0
  7  8  1  0  0  0
  7 21  1  0  0  0
  8  9  1  0  0  0
  9 10  2  0  0  0
 10 11  1  0  0  0
 11 12  2  0  0  0
 11 13  1  0  0  0
 13 14  1  0  0  0
 14 15  1  0  0  0
 15 16  2  0  0  0
 15 20  1  0  0  0
 16 17  1  0  0  0
 17 18  2  0  0  0
 18 19  1  0  0  0
 19 20  2  0  0  0
 21 22  2  0  0  0
 22 23  1  0  0  0
 22 25  1  0  0  0
 23 24  2  0  0  0
 25 26  2  0  0  0
 25 27  2  0  0  0
 25 28  1  0  0  0
M  END
>  <CHROM.0>
-177.78582888,67.01829656,-168.14215822,64.23966974,-31.80039643,-178.97993359
72.22832828,-161.77377950

>  <CHROM.1>
78.29197620,165.79461313,36.56389424,-37.80347177,-0.82373402,-70.15652270
18.06202758,-111.93040307,-20.77268045,18.70430489,-13.68465516,2.28591391
-0.15055926,1.28601037

>  <Name>
F1359-1163

>  <RI>
1.54607e+07

>  <Rbt.Current_Directory>
/home/adria/Escritorio/rDock_CMTR_LC/2pxcA_model/inputs_sah

>  <Rbt.Executable>
rbdock ($Id: //depot/dev/client3/rdock/2013.1/src/exe/rbdock.cxx#4 $)

>  <Rbt.Library>
libRbt.so (2013.1, Build901 2013/11/27)

>  <Rbt.Parameter_File>
/home/adria/Escritorio/rDock_2013.1_src/data/scripts/dock.prm

>  <Rbt.Receptor>
sah_rdock.prm

>  <SCORE>
-300.102

>  <SCORE.INTER>
-11.1719

>  <SCORE.INTER.CONST>
1

>  <SCORE.INTER.POLAR>
-1.42162

>  <SCORE.INTER.REPUL>
0.00143253

>  <SCORE.INTER.ROT>
8

>  <SCORE.INTER.VDW>
-19.7456

>  <SCORE.INTER.norm>
-0.398998

>  <SCORE.INTRA>
-282.801

>  <SCORE.INTRA.DIHEDRAL>
-29.4623

>  <SCORE.INTRA.DIHEDRAL.0>
56.9892

>  <SCORE.INTRA.POLAR>
0

>  <SCORE.INTRA.POLAR.0>
0

>  <SCORE.INTRA.REPUL>
0

>  <SCORE.INTRA.REPUL.0>
0

>  <SCORE.INTRA.VDW>
-268.07

>  <SCORE.INTRA.VDW.0>
274.289

>  <SCORE.INTRA.norm>
-10.1

>  <SCORE.RESTR>
0

>  <SCORE.RESTR.CAVITY>
0

>  <SCORE.RESTR.norm>
0

>  <SCORE.SYSTEM>
-6.12926

>  <SCORE.SYSTEM.CONST>
0

>  <SCORE.SYSTEM.DIHEDRAL>
4.77901

>  <SCORE.SYSTEM.POLAR>
-3.2589

>  <SCORE.SYSTEM.VDW>
2.56151

>  <SCORE.SYSTEM.norm>
-0.218902

>  <SCORE.heavy>
28

>  <SCORE.norm>
-10.7179

$$$$
F1359-1163
  rDOCK(R)          3D
libRbt.so/2013.1/901 2013/11/27
 28 30  0  0  0  0  0  0  0  0999 V2000
  -25.2773   18.1911  -10.3660 C   0  0  0  0  0  0
  -24.5159   18.4538  -11.5285 O   0  0  0  0  0  0
  -25.0086   19.5490  -12.3083 C   0  0  0  0  0  0
  -24.1321   19.8763  -13.5310 C   0  0  0  0  0  0
  -22.7753   20.1746  -13.2028 N   0  0  0  0  0  0
  -22.5233   21.3835  -12.5165 C   0  0  0  0  0  0
  -20.9835   22.0644  -13.0601 C   0  0  0  0  0  0
  -20.4256   20.0026  -12.5044 S   0  0  0  0  0  0
  -21.6226   19.5627  -13.6675 C   0  0  0  0  0  0
  -21.2447   18.9044  -14.7061 N   0  0  0  0  0  0
  -19.8574   18.6810  -14.7694 C   0  0  0  0  0  0
  -19.0347   19.5313  -14.4259 O   0  0  0  0  0  0
  -19.3843   17.2452  -15.2495 C   0  0  0  0  0  0
  -18.9689   16.7576  -16.7524 C   0  0  0  0  0  0
  -17.7952   17.3440  -17.7255 C   0  0  0  0  0  0
  -16.7784   16.1470  -18.6233 C   0  0  0  0  0  0
  -14.9328   16.3230  -18.4845 C   0  0  0  0  0  0
  -14.3115   18.0937  -17.6668 C   0  0  0  0  0  0
  -15.4881   19.2557  -17.0917 C   0  0  0  0  0  0
  -17.1390   18.8350  -17.0597 C   0  0  0  0  0  0
  -20.3023   23.8573  -12.3334 C   0  0  0  0  0  0
  -21.3735   24.5313  -10.9914 C   0  0  0  0  0  0
  -22.8693   23.6665  -10.5428 C   0  0  0  0  0  0
  -23.4090   22.1799  -11.3116 C   0  0  0  0  0  0
  -20.8519   25.5957   -9.7074 S   0  0  0  0  0  0
  -20.9795   26.9593  -10.1980 O   0  0  0  0  0  0
  -21.5017   25.1766   -8.4876 O   0  0  0  0  0  0
  -19.1452   25.1755   -9.7181 C   0  0  0  0  0  0
  1  2  1  0  0  0
  2  3  1  0  0  0
  3  4  1  0  0  0
  4  5  1  0  0  0
  5  6  1  0  0  0
  5  9  1  0  0  0
  6  7  2  0  0  0
  6 24  1  0  0  0
  7  8  1  0  0  0
  7 21  1  0  0  0
  8  9  1  0  0  0
  9 10  2  0  0  0
 10 11  1  0  0  0
 11 12  2  0  0  0
 11 13  1  0  0  0
 13 14  1  0  0  0
 14 15  1  0  0  0
 15 16  2  0  0  0
 15 20  1  0  0  0
 16 17  1  0  0  0
 17 18  2  0  0  0
 18 19  1  0  0  0
 19 20  2  0  0  0
 21 22  2  0  0  0
 22 23  1  0  0  0
 22 25  1  0  0  0
 23 24  2  0  0  0
 25 26  2  0  0  0
 25 27  2  0  0  0
 25 28  1  0  0  0
M  END
>  <CHROM.0>
40.73150661,67.44748299,-46.11372566,62.05875114,168.49501989,-59.19027919
-35.40576130,-161.73145176

>  <CHROM.1>
176.92572203,-57.30273111,-69.26418221,-38.80505150,94.74225341,58.42601961
137.21515238,88.12951062,-20.53284365,20.73690385,-13.20589894,2.08553273
0.43632653,0.57233034

>  <Name>
F1359-1163

>  <RI>
1.54607e+07

>  <Rbt.Current_Directory>
/home/adria/Escritorio/rDock_CMTR_LC/2pxcA_model/inputs_sah

>  <Rbt.Executable>
rbdock ($Id: //depot/dev/client3/rdock/2013.1/src/exe/rbdock.cxx#4 $)

>  <Rbt.Library>
libRbt.so (2013.1, Build901 2013/11/27)

>  <Rbt.Parameter_File>
/home/adria/Escritorio/rDock_2013.1_src/data/scripts/dock.prm

>  <Rbt.Receptor>
sah_rdock.prm

>  <SCORE>
-298.193

>  <SCORE.INTER>
-14.961

>  <SCORE.INTER.CONST>
1

>  <SCORE.INTER.POLAR>
-1.01522

>  <SCORE.INTER.REPUL>
0

>  <SCORE.INTER.ROT>
8

>  <SCORE.INTER.VDW>
-24.9093

>  <SCORE.INTER.norm>
-0.534321

>  <SCORE.INTRA>
-285.374

>  <SCORE.INTRA.DIHEDRAL>
-30.617

>  <SCORE.INTRA.DIHEDRAL.0>
56.9892

>  <SCORE.INTRA.POLAR>
0

>  <SCORE.INTRA.POLAR.0>
0

>  <SCORE.INTRA.REPUL>
0

>  <SCORE.INTRA.REPUL.0>
0

>  <SCORE.INTRA.VDW>
-270.066

>  <SCORE.INTRA.VDW.0>
274.289

>  <SCORE.INTRA.norm>
-10.1919

>  <SCORE.RESTR>
0

>  <SCORE.RESTR.CAVITY>
0

>  <SCORE.RESTR.norm>
0

>  <SCORE.SYSTEM>
2.14222

>  <SCORE.SYSTEM.CONST>
0

>  <SCORE.SYSTEM.DIHEDRAL>
4.83277

>  <SCORE.SYSTEM.POLAR>
-3.5523

>  <SCORE.SYSTEM.REPUL>
0.120723

>  <SCORE.SYSTEM.VDW>
11.2

>  <SCORE.SYSTEM.norm>
0.0765079

>  <SCORE.heavy>
28

>  <SCORE.norm>
-10.6498

$$$$
F1359-1163
  rDOCK(R)          3D
libRbt.so/2013.1/901 2013/11/27
 28 30  0  0  0  0  0  0  0  0999 V2000
  -23.7633   17.1861  -17.0109 C   0  0  0  0  0  0
  -23.6772   18.3134  -16.1613 O   0  0  0  0  0  0
  -24.4983   18.2215  -14.9919 C   0  0  0  0  0  0
  -24.4469   19.4785  -14.1044 C   0  0  0  0  0  0
  -23.1774   19.6968  -13.4892 N   0  0  0  0  0  0
  -22.9404   20.9687  -12.9215 C   0  0  0  0  0  0
  -21.2424   21.4116  -13.1464 C   0  0  0  0  0  0
  -21.0972   19.4177  -12.2113 S   0  0  0  0  0  0
  -22.0358   18.9162  -13.5702 C   0  0  0  0  0  0
  -21.5133   18.0732  -14.3893 N   0  0  0  0  0  0
  -20.1897   17.7149  -14.0760 C   0  0  0  0  0  0
  -19.8468   17.3793  -12.9412 O   0  0  0  0  0  0
  -19.1495   17.6988  -15.2733 C   0  0  0  0  0  0
  -18.7603   16.4643  -16.2701 C   0  0  0  0  0  0
  -17.8211   16.4913  -17.6063 C   0  0  0  0  0  0
  -17.9187   15.0733  -18.7253 C   0  0  0  0  0  0
  -16.3190   14.2621  -19.2145 C   0  0  0  0  0  0
  -14.6449   15.3418  -18.7432 C   0  0  0  0  0  0
  -14.7918   16.8542  -17.8735 C   0  0  0  0  0  0
  -16.3129   17.3354  -17.2749 C   0  0  0  0  0  0
  -20.5265   23.2242  -12.5074 C   0  0  0  0  0  0
  -21.7861   24.1939  -11.5718 C   0  0  0  0  0  0
  -23.4431   23.5514  -11.4036 C   0  0  0  0  0  0
  -23.9736   22.0204  -12.0869 C   0  0  0  0  0  0
  -21.4471   25.3910  -10.3447 S   0  0  0  0  0  0
  -21.9912   26.6562  -10.8134 O   0  0  0  0  0  0
  -21.8302   24.8409   -9.0655 O   0  0  0  0  0  0
  -19.7008   25.4505  -10.5356 C   0  0  0  0  0  0
  1  2  1  0  0  0
  2  3  1  0  0  0
  3  4  1  0  0  0
  4  5  1  0  0  0
  5  6  1  0  0  0
  5  9  1  0  0  0
  6  7  2  0  0  0
  6 24  1  0  0  0
  7  8  1  0  0  0
  7 21  1  0  0  0
  8  9  1  0  0  0
  9 10  2  0  0  0
 10 11  1  0  0  0
 11 12  2  0  0  0
 11 13  1  0  0  0
 13 14  1  0  0  0
 14 15  1  0  0  0
 15 16  2  0  0  0
 15 20  1  0  0  0
 16 17  1  0  0  0
 17 18  2  0  0  0
 18 19  1  0  0  0
 19 20  2  0  0  0
 21 22  2  0  0  0
 22 23  1  0  0  0
 22 25  1  0  0  0
 23 24  2  0  0  0
 25 26  2  0  0  0
 25 27  2  0  0  0
 25 28  1  0  0  0
M  END
>  <CHROM.0>
-166.48826287,-75.41593835,78.79310720,65.91833509,168.07819125,-174.41710090
82.27550231,-161.61661772

>  <CHROM.1>
-177.42897422,-66.93673309,165.52766538,48.22848640,-89.89226558,172.22374907
-164.71189299,118.99998275,-20.78407469,19.99811371,-13.91041345,1.18725448
-0.14023531,-2.52454746

>  <Name>
F1359-1163

>  <RI>
1.54607e+07

>  <Rbt.Current_Directory>
/home/adria/Escritorio/rDock_CMTR_LC/2pxcA_model/inputs_sah

>  <Rbt.Executable>
rbdock ($Id: //depot/dev/client3/rdock/2013.1/src/exe/rbdock.cxx#4 $)

>  <Rbt.Library>
libRbt.so (2013.1, Build901 2013/11/27)

>  <Rbt.Parameter_File>
/home/adria/Escritorio/rDock_2013.1_src/data/scripts/dock.prm

>  <Rbt.Receptor>
sah_rdock.prm

>  <SCORE>
-302.713

>  <SCORE.INTER>
-16.887

>  <SCORE.INTER.CONST>
1

>  <SCORE.INTER.POLAR>
-2.18871

>  <SCORE.INTER.REPUL>
0.00331353

>  <SCORE.INTER.ROT>
8

>  <SCORE.INTER.VDW>
-22.8619

>  <SCORE.INTER.norm>
-0.603107

>  <SCORE.INTRA>
-284.084

>  <SCORE.INTRA.DIHEDRAL>
-24.2941

>  <SCORE.INTRA.DIHEDRAL.0>
56.9892

>  <SCORE.INTRA.POLAR>
0

>  <SCORE.INTRA.POLAR.0>
0

>  <SCORE.INTRA.REPUL>
0

>  <SCORE.INTRA.REPUL.0>
0

>  <SCORE.INTRA.VDW>
-271.936

>  <SCORE.INTRA.VDW.0>
274.289

>  <SCORE.INTRA.norm>
-10.1458

>  <SCORE.RESTR>
0

>  <SCORE.RESTR.CAVITY>
0

>  <SCORE.RESTR.norm>
0

>  <SCORE.SYSTEM>
-1.74232

>  <SCORE.SYSTEM.CONST>
0

>  <SCORE.SYSTEM.DIHEDRAL>
5.27409

>  <SCORE.SYSTEM.POLAR>
-3.97899

>  <SCORE.SYSTEM.REPUL>
0.0425615

>  <SCORE.SYSTEM.VDW>
8.93638

>  <SCORE.SYSTEM.norm>
-0.0622258

>  <SCORE.heavy>
28

>  <SCORE.norm>
-10.8112

$$$$
F1359-1163
  rDOCK(R)          3D
libRbt.so/2013.1/901 2013/11/27
 28 30  0  0  0  0  0  0  0  0999 V2000
  -24.3166   15.7964  -13.0067 C   0  0  0  0  0  0
  -23.8773   16.9041  -13.7682 O   0  0  0  0  0  0
  -24.7204   18.0559  -13.6550 C   0  0  0  0  0  0
  -24.0920   19.3369  -14.2334 C   0  0  0  0  0  0
  -22.8203   19.6585  -13.6704 N   0  0  0  0  0  0
  -22.6207   20.9867  -13.2320 C   0  0  0  0  0  0
  -20.9451   21.4663  -13.5361 C   0  0  0  0  0  0
  -20.7073   19.5780  -12.4186 S   0  0  0  0  0  0
  -21.6518   18.9150  -13.7021 C   0  0  0  0  0  0
  -21.1134   18.0163  -14.4486 N   0  0  0  0  0  0
  -19.7716   17.7373  -14.1323 C   0  0  0  0  0  0
  -19.3927   17.5378  -12.9770 O   0  0  0  0  0  0
  -18.7577   17.6256  -15.3468 C   0  0  0  0  0  0
  -18.2613   16.2873  -16.1416 C   0  0  0  0  0  0
  -17.3717   15.0388  -15.5775 C   0  0  0  0  0  0
  -15.9035   14.5646  -16.5221 C   0  0  0  0  0  0
  -15.7286   12.7718  -16.9822 C   0  0  0  0  0  0
  -17.0167   11.5181  -16.0028 C   0  0  0  0  0  0
  -18.2118   12.1720  -14.9031 C   0  0  0  0  0  0
  -18.4092   13.8602  -14.7829 C   0  0  0  0  0  0
  -20.2861   23.3563  -13.0890 C   0  0  0  0  0  0
  -21.5635   24.3659  -12.2222 C   0  0  0  0  0  0
  -23.1916   23.6838  -11.9564 C   0  0  0  0  0  0
  -23.6769   22.0762  -12.4785 C   0  0  0  0  0  0
  -21.2468   25.6867  -11.1227 S   0  0  0  0  0  0
  -19.8374   25.6244  -10.7674 O   0  0  0  0  0  0
  -21.8232   26.8852  -11.6857 O   0  0  0  0  0  0
  -22.1755   25.0942   -9.7531 C   0  0  0  0  0  0
  1  2  1  0  0  0
  2  3  1  0  0  0
  3  4  1  0  0  0
  4  5  1  0  0  0
  5  6  1  0  0  0
  5  9  1  0  0  0
  6  7  2  0  0  0
  6 24  1  0  0  0
  7  8  1  0  0  0
  7 21  1  0  0  0
  8  9  1  0  0  0
  9 10  2  0  0  0
 10 11  1  0  0  0
 11 12  2  0  0  0
 11 13  1  0  0  0
 13 14  1  0  0  0
 14 15  1  0  0  0
 15 16  2  0  0  0
 15 20  1  0  0  0
 16 17  1  0  0  0
 17 18  2  0  0  0
 18 19  1  0  0  0
 19 20  2  0  0  0
 21 22  2  0  0  0
 22 23  1  0  0  0
 22 25  1  0  0  0
 23 24  2  0  0  0
 25 26  2  0  0  0
 25 27  2  0  0  0
 25 28  1  0  0  0
M  END
>  <CHROM.0>
-62.41687120,-167.84239955,-7.26106337,63.74677412,-30.68787305,63.12645360
-36.86129838,-162.35275724

>  <CHROM.1>
167.71998626,-55.68065630,-131.45188330,47.49308986,-95.01564590,-65.64408506
-128.03527340,-13.79439867,-20.77545090,19.48037902,-13.42822959,1.25463134
-0.15331266,-2.83071077

>  <Name>
F1359-1163

>  <RI>
1.54607e+07

>  <Rbt.Current_Directory>
/home/adria/Escritorio/rDock_CMTR_LC/2pxcA_model/inputs_sah

>  <Rbt.Executable>
rbdock ($Id: //depot/dev/client3/rdock/2013.1/src/exe/rbdock.cxx#4 $)

>  <Rbt.Library>
libRbt.so (2013.1, Build901 2013/11/27)

>  <Rbt.Parameter_File>
/home/adria/Escritorio/rDock_2013.1_src/data/scripts/dock.prm

>  <Rbt.Receptor>
sah_rdock.prm

>  <SCORE>
-302.879

>  <SCORE.INTER>
-14.6129

>  <SCORE.INTER.CONST>
1

>  <SCORE.INTER.POLAR>
-2.22505

>  <SCORE.INTER.REPUL>
0.157459

>  <SCORE.INTER.ROT>
8

>  <SCORE.INTER.VDW>
-21.235

>  <SCORE.INTER.norm>
-0.521889

>  <SCORE.INTRA>
-282.432

>  <SCORE.INTRA.DIHEDRAL>
-24.1251

>  <SCORE.INTRA.DIHEDRAL.0>
56.9892

>  <SCORE.INTRA.POLAR>
0

>  <SCORE.INTRA.POLAR.0>
0

>  <SCORE.INTRA.REPUL>
0

>  <SCORE.INTRA.REPUL.0>
0

>  <SCORE.INTRA.VDW>
-270.37

>  <SCORE.INTRA.VDW.0>
274.289

>  <SCORE.INTRA.norm>
-10.0869

>  <SCORE.RESTR>
0.347145

>  <SCORE.RESTR.CAVITY>
0.347145

>  <SCORE.RESTR.norm>
0.012398

>  <SCORE.SYSTEM>
-6.18054

>  <SCORE.SYSTEM.CONST>
0

>  <SCORE.SYSTEM.DIHEDRAL>
9.37735

>  <SCORE.SYSTEM.POLAR>
-4.30221

>  <SCORE.SYSTEM.VDW>
3.75831

>  <SCORE.SYSTEM.norm>
-0.220734

>  <SCORE.heavy>
28

>  <SCORE.norm>
-10.8171

$$$$
F1359-1163
  rDOCK(R)          3D
libRbt.so/2013.1/901 2013/11/27
 28 30  0  0  0  0  0  0  0  0999 V2000
  -16.8660   20.0400  -16.3028 C   0  0  0  0  0  0
  -18.1062   20.7164  -16.3697 O   0  0  0  0  0  0
  -18.3099   21.6589  -15.3113 C   0  0  0  0  0  0
  -19.7944   21.9457  -15.0207 C   0  0  0  0  0  0
  -20.5288   20.7987  -14.5936 N   0  0  0  0  0  0
  -21.0480   20.8115  -13.2796 C   0  0  0  0  0  0
  -20.9819   19.1795  -12.5997 C   0  0  0  0  0  0
  -22.0353   18.8590  -14.5125 S   0  0  0  0  0  0
  -20.6134   19.5557  -15.1995 C   0  0  0  0  0  0
  -19.9025   18.8286  -15.9872 N   0  0  0  0  0  0
  -20.3747   17.5117  -16.1335 C   0  0  0  0  0  0
  -21.5721   17.2490  -16.2572 O   0  0  0  0  0  0
  -19.2836   16.3623  -16.1970 C   0  0  0  0  0  0
  -18.7247   15.5574  -17.5042 C   0  0  0  0  0  0
  -17.3918   14.6217  -17.6311 C   0  0  0  0  0  0
  -16.3800   14.8058  -19.1194 C   0  0  0  0  0  0
  -15.9546   13.2580  -20.0574 C   0  0  0  0  0  0
  -16.3481   11.5219  -19.0468 C   0  0  0  0  0  0
  -17.1039   11.5770  -17.4684 C   0  0  0  0  0  0
  -17.6628   13.0655  -16.8554 C   0  0  0  0  0  0
  -21.5933   18.8067  -10.6778 C   0  0  0  0  0  0
  -22.3342   20.2900   -9.8693 C   0  0  0  0  0  0
  -22.3592   21.8467  -10.7426 C   0  0  0  0  0  0
  -21.7082   22.0723  -12.3606 C   0  0  0  0  0  0
  -23.5229   20.2669   -8.5887 S   0  0  0  0  0  0
  -23.3050   19.0519   -7.8189 O   0  0  0  0  0  0
  -23.5214   21.5641   -7.9538 O   0  0  0  0  0  0
  -24.9515   20.0265   -9.5840 C   0  0  0  0  0  0
  1  2  1  0  0  0
  2  3  1  0  0  0
  3  4  1  0  0  0
  4  5  1  0  0  0
  5  6  1  0  0  0
  5  9  1  0  0  0
  6  7  2  0  0  0
  6 24  1  0  0  0
  7  8  1  0  0  0
  7 21  1  0  0  0
  8  9  1  0  0  0
  9 10  2  0  0  0
 10 11  1  0  0  0
 11 12  2  0  0  0
 11 13  1  0  0  0
 13 14  1  0  0  0
 14 15  1  0  0  0
 15 16  2  0  0  0
 15 20  1  0  0  0
 16 17  1  0  0  0
 17 18  2  0  0  0
 18 19  1  0  0  0
 19 20  2  0  0  0
 21 22  2  0  0  0
 22 23  1  0  0  0
 22 25  1  0  0  0
 23 24  2  0  0  0
 25 26  2  0  0  0
 25 27  2  0  0  0
 25 28  1  0  0  0
M  END
>  <CHROM.0>
-59.11020841,68.65063808,71.18611592,-59.06132304,20.92565974,-55.22092190
-42.14378029,-161.47414015

>  <CHROM.1>
-155.69838215,61.88181692,115.21081693,41.90705603,-102.23096139,165.13589348
-137.52170480,29.73812299,-20.36387487,18.46033343,-14.08004227,-0.52855056
0.98110284,-0.02157917

>  <Name>
F1359-1163

>  <RI>
1.54607e+07

>  <Rbt.Current_Directory>
/home/adria/Escritorio/rDock_CMTR_LC/2pxcA_model/inputs_sah

>  <Rbt.Executable>
rbdock ($Id: //depot/dev/client3/rdock/2013.1/src/exe/rbdock.cxx#4 $)

>  <Rbt.Library>
libRbt.so (2013.1, Build901 2013/11/27)

>  <Rbt.Parameter_File>
/home/adria/Escritorio/rDock_2013.1_src/data/scripts/dock.prm

>  <Rbt.Receptor>
sah_rdock.prm

>  <SCORE>
-287.228

>  <SCORE.INTER>
-8.12028

>  <SCORE.INTER.CONST>
1

>  <SCORE.INTER.POLAR>
-1.25241

>  <SCORE.INTER.REPUL>
0.0909361

>  <SCORE.INTER.ROT>
8

>  <SCORE.INTER.VDW>
-17.7168

>  <SCORE.INTER.norm>
-0.29001

>  <SCORE.INTRA>
-284.131

>  <SCORE.INTRA.DIHEDRAL>
-27.1932

>  <SCORE.INTRA.DIHEDRAL.0>
56.9892

>  <SCORE.INTRA.POLAR>
0

>  <SCORE.INTRA.POLAR.0>
0

>  <SCORE.INTRA.REPUL>
0

>  <SCORE.INTRA.REPUL.0>
0

>  <SCORE.INTRA.VDW>
-270.534

>  <SCORE.INTRA.VDW.0>
274.289

>  <SCORE.INTRA.norm>
-10.1475

>  <SCORE.RESTR>
0.00901561

>  <SCORE.RESTR.CAVITY>
0.00901561

>  <SCORE.RESTR.norm>
0.000321986

>  <SCORE.SYSTEM>
5.0144

>  <SCORE.SYSTEM.CONST>
0

>  <SCORE.SYSTEM.DIHEDRAL>
7.1902

>  <SCORE.SYSTEM.POLAR>
-3.38621

>  <SCORE.SYSTEM.REPUL>
0.000697926

>  <SCORE.SYSTEM.VDW>
12.9289

>  <SCORE.SYSTEM.norm>
0.179086

>  <SCORE.heavy>
28

>  <SCORE.norm>
-10.2581

$$$$
F1359-1163
  rDOCK(R)          3D
libRbt.so/2013.1/901 2013/11/27
 28 30  0  0  0  0  0  0  0  0999 V2000
  -24.3650   16.5329  -13.8860 C   0  0  0  0  0  0
  -23.0502   16.2365  -13.4577 O   0  0  0  0  0  0
  -22.1169   17.3007  -13.6734 C   0  0  0  0  0  0
  -21.8073   17.5551  -15.1600 C   0  0  0  0  0  0
  -20.7410   18.4793  -15.3754 N   0  0  0  0  0  0
  -19.5286   17.9651  -15.8870 C   0  0  0  0  0  0
  -18.1660   18.8450  -15.1805 C   0  0  0  0  0  0
  -19.4320   20.4734  -15.9657 S   0  0  0  0  0  0
  -20.6330   19.7877  -14.9330 C   0  0  0  0  0  0
  -21.0862   20.5087  -13.9689 N   0  0  0  0  0  0
  -20.4758   21.7714  -13.8619 C   0  0  0  0  0  0
  -19.2761   21.9462  -14.0811 O   0  0  0  0  0  0
  -21.4191   22.9948  -13.5026 C   0  0  0  0  0  0
  -22.2972   23.2423  -12.1474 C   0  0  0  0  0  0
  -23.4251   22.2721  -11.4731 C   0  0  0  0  0  0
  -23.5007   22.2081   -9.6668 C   0  0  0  0  0  0
  -23.4722   20.5277   -8.8718 C   0  0  0  0  0  0
  -23.7723   18.9733  -10.1694 C   0  0  0  0  0  0
  -23.9466   19.2823  -11.8839 C   0  0  0  0  0  0
  -23.6960   20.8573  -12.4840 C   0  0  0  0  0  0
  -16.2302   18.3424  -15.6346 C   0  0  0  0  0  0
  -16.1227   17.0371  -16.9336 C   0  0  0  0  0  0
  -17.6210   16.3023  -17.5674 C   0  0  0  0  0  0
  -19.2342   16.7448  -17.0248 C   0  0  0  0  0  0
  -14.7910   16.8075  -18.0415 S   0  0  0  0  0  0
  -13.6887   16.2401  -17.2802 O   0  0  0  0  0  0
  -15.3000   16.1501  -19.2224 O   0  0  0  0  0  0
  -14.4255   18.5006  -18.3404 C   0  0  0  0  0  0
  1  2  1  0  0  0
  2  3  1  0  0  0
  3  4  1  0  0  0
  4  5  1  0  0  0
  5  6  1  0  0  0
  5  9  1  0  0  0
  6  7  2  0  0  0
  6 24  1  0  0  0
  7  8  1  0  0  0
  7 21  1  0  0  0
  8  9  1  0  0  0
  9 10  2  0  0  0
 10 11  1  0  0  0
 11 12  2  0  0  0
 11 13  1  0  0  0
 13 14  1  0  0  0
 14 15  1  0  0  0
 15 16  2  0  0  0
 15 20  1  0  0  0
 16 17  1  0  0  0
 17 18  2  0  0  0
 18 19  1  0  0  0
 19 20  2  0  0  0
 21 22  2  0  0  0
 22 23  1  0  0  0
 22 25  1  0  0  0
 23 24  2  0  0  0
 25 26  2  0  0  0
 25 27  2  0  0  0
 25 28  1  0  0  0
M  END
>  <CHROM.0>
-176.19578294,65.35229939,-46.84509758,63.76661451,-30.62236655,56.31037095
83.55963657,-161.05539983

>  <CHROM.1>
-68.91930163,-171.54633371,109.90849221,-37.02702960,63.02413928,-55.77893853
143.49265727,73.37849976,-19.80880366,18.97870716,-14.76553110,2.60121708
0.53572393,0.33548232

>  <Name>
F1359-1163

>  <RI>
1.54607e+07

>  <Rbt.Current_Directory>
/home/adria/Escritorio/rDock_CMTR_LC/2pxcA_model/inputs_sah

>  <Rbt.Executable>
rbdock ($Id: //depot/dev/client3/rdock/2013.1/src/exe/rbdock.cxx#4 $)

>  <Rbt.Library>
libRbt.so (2013.1, Build901 2013/11/27)

>  <Rbt.Parameter_File>
/home/adria/Escritorio/rDock_2013.1_src/data/scripts/dock.prm

>  <Rbt.Receptor>
sah_rdock.prm

>  <SCORE>
-296.948

>  <SCORE.INTER>
-5.40787

>  <SCORE.INTER.CONST>
1

>  <SCORE.INTER.POLAR>
0

>  <SCORE.INTER.REPUL>
0.0047342

>  <SCORE.INTER.ROT>
8

>  <SCORE.INTER.VDW>
-18.8315

>  <SCORE.INTER.norm>
-0.193138

>  <SCORE.INTRA>
-284.867

>  <SCORE.INTRA.DIHEDRAL>
-32.4108

>  <SCORE.INTRA.DIHEDRAL.0>
56.9892

>  <SCORE.INTRA.POLAR>
0

>  <SCORE.INTRA.POLAR.0>
0

>  <SCORE.INTRA.REPUL>
0

>  <SCORE.INTRA.REPUL.0>
0

>  <SCORE.INTRA.VDW>
-268.662

>  <SCORE.INTRA.VDW.0>
274.289

>  <SCORE.INTRA.norm>
-10.1738

>  <SCORE.RESTR>
0

>  <SCORE.RESTR.CAVITY>
0

>  <SCORE.RESTR.norm>
0

>  <SCORE.SYSTEM>
-6.67279

>  <SCORE.SYSTEM.CONST>
0

>  <SCORE.SYSTEM.DIHEDRAL>
5.9183

>  <SCORE.SYSTEM.POLAR>
-3.65965

>  <SCORE.SYSTEM.VDW>
2.81086

>  <SCORE.SYSTEM.norm>
-0.238314

>  <SCORE.heavy>
28

>  <SCORE.norm>
-10.6053

$$$$
F1359-1163
  rDOCK(R)          3D
libRbt.so/2013.1/901 2013/11/27
 28 30  0  0  0  0  0  0  0  0999 V2000
  -24.4025   16.4121  -13.7627 C   0  0  0  0  0  0
  -23.0108   16.2796  -13.5487 O   0  0  0  0  0  0
  -22.2912   17.5144  -13.6360 C   0  0  0  0  0  0
  -20.7783   17.3627  -13.3938 C   0  0  0  0  0  0
  -20.0620   18.5966  -13.4392 N   0  0  0  0  0  0
  -20.6784   19.7277  -12.8588 C   0  0  0  0  0  0
  -20.2735   21.1713  -13.7980 C   0  0  0  0  0  0
  -18.2895   20.2976  -13.3838 S   0  0  0  0  0  0
  -18.9375   18.9125  -14.1841 C   0  0  0  0  0  0
  -18.3791   18.5282  -15.2774 N   0  0  0  0  0  0
  -17.3224   19.3537  -15.7020 C   0  0  0  0  0  0
  -17.3924   20.5835  -15.6743 O   0  0  0  0  0  0
  -15.9904   18.6296  -16.1677 C   0  0  0  0  0  0
  -15.7688   17.6123  -17.4267 C   0  0  0  0  0  0
  -16.2022   16.0427  -17.5565 C   0  0  0  0  0  0
  -16.1922   15.3068  -19.2091 C   0  0  0  0  0  0
  -17.7307   14.4170  -19.7549 C   0  0  0  0  0  0
  -19.0693   14.0432  -18.2521 C   0  0  0  0  0  0
  -18.7538   14.6243  -16.6309 C   0  0  0  0  0  0
  -17.4178   15.6435  -16.3483 C   0  0  0  0  0  0
  -21.0367   23.0084  -13.2992 C   0  0  0  0  0  0
  -22.0064   22.9711  -11.7305 C   0  0  0  0  0  0
  -22.2624   21.4161  -10.8921 C   0  0  0  0  0  0
  -21.6412   19.8767  -11.4728 C   0  0  0  0  0  0
  -22.2397   24.3189  -10.6430 S   0  0  0  0  0  0
  -22.9280   25.3615  -11.3886 O   0  0  0  0  0  0
  -22.7781   23.8064   -9.4048 O   0  0  0  0  0  0
  -20.5559   24.7954  -10.4777 C   0  0  0  0  0  0
  1  2  1  0  0  0
  2  3  1  0  0  0
  3  4  1  0  0  0
  4  5  1  0  0  0
  5  6  1  0  0  0
  5  9  1  0  0  0
  6  7  2  0  0  0
  6 24  1  0  0  0
  7  8  1  0  0  0
  7 21  1  0  0  0
  8  9  1  0  0  0
  9 10  2  0  0  0
 10 11  1  0  0  0
 11 12  2  0  0  0
 11 13  1  0  0  0
 13 14  1  0  0  0
 14 15  1  0  0  0
 15 16  2  0  0  0
 15 20  1  0  0  0
 16 17  1  0  0  0
 17 18  2  0  0  0
 18 19  1  0  0  0
 19 20  2  0  0  0
 21 22  2  0  0  0
 22 23  1  0  0  0
 22 25  1  0  0  0
 23 24  2  0  0  0
 25 26  2  0  0  0
 25 27  2  0  0  0
 25 28  1  0  0  0
M  END
>  <CHROM.0>
-179.51338367,-73.74344495,-9.16317943,63.11300258,-31.46445447,62.42976206
81.11103721,-160.67368534

>  <CHROM.1>
179.66280658,-178.18939241,39.36715111,-43.35826830,63.31740383,-75.76284887
165.07485940,61.06960203,-19.91189928,19.50754663,-13.99445156,1.08640942
-0.49138777,-2.68217627

>  <Name>
F1359-1163

>  <RI>
1.54607e+07

>  <Rbt.Current_Directory>
/home/adria/Escritorio/rDock_CMTR_LC/2pxcA_model/inputs_sah

>  <Rbt.Executable>
rbdock ($Id: //depot/dev/client3/rdock/2013.1/src/exe/rbdock.cxx#4 $)

>  <Rbt.Library>
libRbt.so (2013.1, Build901 2013/11/27)

>  <Rbt.Parameter_File>
/home/adria/Escritorio/rDock_2013.1_src/data/scripts/dock.prm

>  <Rbt.Receptor>
sah_rdock.prm

>  <SCORE>
-304.446

>  <SCORE.INTER>
-12.508

>  <SCORE.INTER.CONST>
1

>  <SCORE.INTER.POLAR>
-0.87178

>  <SCORE.INTER.REPUL>
0

>  <SCORE.INTER.ROT>
8

>  <SCORE.INTER.VDW>
-22.944

>  <SCORE.INTER.norm>
-0.446716

>  <SCORE.INTRA>
-285.021

>  <SCORE.INTRA.DIHEDRAL>
-27.5401

>  <SCORE.INTRA.DIHEDRAL.0>
56.9892

>  <SCORE.INTRA.POLAR>
0

>  <SCORE.INTRA.POLAR.0>
0

>  <SCORE.INTRA.REPUL>
0

>  <SCORE.INTRA.REPUL.0>
0

>  <SCORE.INTRA.VDW>
-271.251

>  <SCORE.INTRA.VDW.0>
274.289

>  <SCORE.INTRA.norm>
-10.1793

>  <SCORE.RESTR>
0

>  <SCORE.RESTR.CAVITY>
0

>  <SCORE.RESTR.norm>
0

>  <SCORE.SYSTEM>
-6.91691

>  <SCORE.SYSTEM.CONST>
0

>  <SCORE.SYSTEM.DIHEDRAL>
9.19517

>  <SCORE.SYSTEM.POLAR>
-4.5194

>  <SCORE.SYSTEM.REPUL>
0.0398361

>  <SCORE.SYSTEM.VDW>
3.65227

>  <SCORE.SYSTEM.norm>
-0.247033

>  <SCORE.heavy>
28

>  <SCORE.norm>
-10.8731

$$$$
F1359-1163
  rDOCK(R)          3D
libRbt.so/2013.1/901 2013/11/27
 28 30  0  0  0  0  0  0  0  0999 V2000
  -24.0821   16.4020  -11.5773 C   0  0  0  0  0  0
  -23.9786   17.6131  -10.8543 O   0  0  0  0  0  0
  -24.7706   18.6781  -11.3918 C   0  0  0  0  0  0
  -24.2805   19.1768  -12.7635 C   0  0  0  0  0  0
  -22.9466   19.6849  -12.7477 N   0  0  0  0  0  0
  -22.7637   21.0171  -12.3142 C   0  0  0  0  0  0
  -21.4535   21.7666  -13.2371 C   0  0  0  0  0  0
  -20.5138   19.9149  -12.4891 S   0  0  0  0  0  0
  -21.8107   19.1396  -13.3234 C   0  0  0  0  0  0
  -21.5194   18.3571  -14.3020 N   0  0  0  0  0  0
  -20.1447   18.2897  -14.5921 C   0  0  0  0  0  0
  -19.4079   19.2754  -14.5337 O   0  0  0  0  0  0
  -19.5560   16.8594  -14.9432 C   0  0  0  0  0  0
  -18.1763   16.4908  -15.7366 C   0  0  0  0  0  0
  -17.6279   15.0230  -16.1985 C   0  0  0  0  0  0
  -18.8382   13.6864  -16.3438 C   0  0  0  0  0  0
  -18.4605   12.0951  -15.4597 C   0  0  0  0  0  0
  -16.5346   11.9399  -14.7839 C   0  0  0  0  0  0
  -15.4228   13.2771  -14.9867 C   0  0  0  0  0  0
  -15.9964   14.7629  -15.5925 C   0  0  0  0  0  0
  -20.9311   23.7268  -12.9349 C   0  0  0  0  0  0
  -21.8498   24.4972  -11.5331 C   0  0  0  0  0  0
  -23.1061   23.5564  -10.6826 C   0  0  0  0  0  0
  -23.5425   21.9046  -11.0993 C   0  0  0  0  0  0
  -21.2829   25.8252  -10.5489 S   0  0  0  0  0  0
  -21.1579   26.9848  -11.4185 O   0  0  0  0  0  0
  -22.0907   25.8718   -9.3527 O   0  0  0  0  0  0
  -19.6660   25.2173  -10.2241 C   0  0  0  0  0  0
  1  2  1  0  0  0
  2  3  1  0  0  0
  3  4  1  0  0  0
  4  5  1  0  0  0
  5  6  1  0  0  0
  5  9  1  0  0  0
  6  7  2  0  0  0
  6 24  1  0  0  0
  7  8  1  0  0  0
  7 21  1  0  0  0
  8  9  1  0  0  0
  9 10  2  0  0  0
 10 11  1  0  0  0
 11 12  2  0  0  0
 11 13  1  0  0  0
 13 14  1  0  0  0
 14 15  1  0  0  0
 15 16  2  0  0  0
 15 20  1  0  0  0
 16 17  1  0  0  0
 17 18  2  0  0  0
 18 19  1  0  0  0
 19 20  2  0  0  0
 21 22  2  0  0  0
 22 23  1  0  0  0
 22 25  1  0  0  0
 23 24  2  0  0  0
 25 26  2  0  0  0
 25 27  2  0  0  0
 25 28  1  0  0  0
M  END
>  <CHROM.0>
-64.41534075,-76.39468645,72.89390505,-61.72457596,167.64236319,63.53521134
-156.42320666,-160.92081289

>  <CHROM.1>
-67.83842836,-60.19072425,-82.07457967,-38.18272471,159.88131189,-174.79338180
20.97389820,64.19979148,-20.84192644,19.72323479,-12.86615121,1.22222184
-0.35762060,-2.87133274

>  <Name>
F1359-1163

>  <RI>
1.54607e+07

>  <Rbt.Current_Directory>
/home/adria/Escritorio/rDock_CMTR_LC/2pxcA_model/inputs_sah

>  <Rbt.Executable>
rbdock ($Id: //depot/dev/client3/rdock/2013.1/src/exe/rbdock.cxx#4 $)

>  <Rbt.Library>
libRbt.so (2013.1, Build901 2013/11/27)

>  <Rbt.Parameter_File>
/home/adria/Escritorio/rDock_2013.1_src/data/scripts/dock.prm

>  <Rbt.Receptor>
sah_rdock.prm

>  <SCORE>
-299.082

>  <SCORE.INTER>
-11.1396

>  <SCORE.INTER.CONST>
1

>  <SCORE.INTER.POLAR>
-1.42001

>  <SCORE.INTER.REPUL>
0

>  <SCORE.INTER.ROT>
8

>  <SCORE.INTER.VDW>
-19.7116

>  <SCORE.INTER.norm>
-0.397843

>  <SCORE.INTRA>
-285.047

>  <SCORE.INTRA.DIHEDRAL>
-32.405

>  <SCORE.INTRA.DIHEDRAL.0>
56.9892

>  <SCORE.INTRA.POLAR>
0

>  <SCORE.INTRA.POLAR.0>
0

>  <SCORE.INTRA.REPUL>
0

>  <SCORE.INTRA.REPUL.0>
0

>  <SCORE.INTRA.VDW>
-268.845

>  <SCORE.INTRA.VDW.0>
274.289

>  <SCORE.INTRA.norm>
-10.1803

>  <SCORE.RESTR>
0.00918028

>  <SCORE.RESTR.CAVITY>
0.00918028

>  <SCORE.RESTR.norm>
0.000327867

>  <SCORE.SYSTEM>
-2.90418

>  <SCORE.SYSTEM.CONST>
0

>  <SCORE.SYSTEM.DIHEDRAL>
4.22989

>  <SCORE.SYSTEM.POLAR>
-4.13125

>  <SCORE.SYSTEM.REPUL>
0.0440259

>  <SCORE.SYSTEM.VDW>
8.807

>  <SCORE.SYSTEM.norm>
-0.103721

>  <SCORE.heavy>
28

>  <SCORE.norm>
-10.6815

$$$$
F1359-1163
  rDOCK(R)          3D
libRbt.so/2013.1/901 2013/11/27
 28 30  0  0  0  0  0  0  0  0999 V2000
  -23.7947   16.2382  -13.2550 C   0  0  0  0  0  0
  -22.8685   16.7594  -14.1881 O   0  0  0  0  0  0
  -23.4554   17.6275  -15.1638 C   0  0  0  0  0  0
  -23.8987   18.9859  -14.5906 C   0  0  0  0  0  0
  -22.8562   19.6959  -13.9221 N   0  0  0  0  0  0
  -23.2354   20.7574  -13.0703 C   0  0  0  0  0  0
  -22.0300   22.0494  -13.1599 C   0  0  0  0  0  0
  -20.7969   20.2744  -12.7125 S   0  0  0  0  0  0
  -21.4930   19.6541  -14.1650 C   0  0  0  0  0  0
  -20.7075   19.3934  -15.1498 N   0  0  0  0  0  0
  -19.3596   19.7149  -14.9083 C   0  0  0  0  0  0
  -18.7961   19.4456  -13.8463 O   0  0  0  0  0  0
  -18.5607   20.3935  -16.0986 C   0  0  0  0  0  0
  -16.9499   20.6234  -16.2457 C   0  0  0  0  0  0
  -15.7684   19.5027  -16.3731 C   0  0  0  0  0  0
  -14.4632   19.7987  -17.5903 C   0  0  0  0  0  0
  -14.0873   18.4267  -18.7872 C   0  0  0  0  0  0
  -14.9223   16.6236  -18.2959 C   0  0  0  0  0  0
  -15.9628   16.4910  -16.8940 C   0  0  0  0  0  0
  -16.4116   17.8980  -16.0441 C   0  0  0  0  0  0
  -22.2651   23.7928  -12.1055 C   0  0  0  0  0  0
  -23.7331   23.7538  -10.9892 C   0  0  0  0  0  0
  -24.8084   22.3289  -11.0007 C   0  0  0  0  0  0
  -24.5619   20.9244  -12.0297 C   0  0  0  0  0  0
  -23.9162   24.6693   -9.5121 S   0  0  0  0  0  0
  -22.8732   25.6835   -9.5004 O   0  0  0  0  0  0
  -25.3087   25.0279   -9.3780 O   0  0  0  0  0  0
  -23.4533   23.4059   -8.3812 C   0  0  0  0  0  0
  1  2  1  0  0  0
  2  3  1  0  0  0
  3  4  1  0  0  0
  4  5  1  0  0  0
  5  6  1  0  0  0
  5  9  1  0  0  0
  6  7  2  0  0  0
  6 24  1  0  0  0
  7  8  1  0  0  0
  7 21  1  0  0  0
  8  9  1  0  0  0
  9 10  2  0  0  0
 10 11  1  0  0  0
 11 12  2  0  0  0
 11 13  1  0  0  0
 13 14  1  0  0  0
 14 15  1  0  0  0
 15 16  2  0  0  0
 15 20  1  0  0  0
 16 17  1  0  0  0
 17 18  2  0  0  0
 18 19  1  0  0  0
 19 20  2  0  0  0
 21 22  2  0  0  0
 22 23  1  0  0  0
 22 25  1  0  0  0
 23 24  2  0  0  0
 25 26  2  0  0  0
 25 27  2  0  0  0
 25 28  1  0  0  0
M  END
>  <CHROM.0>
-58.45349184,67.50581613,-7.47015471,65.61370033,29.98899767,64.67975580
83.64520426,-159.47691912

>  <CHROM.1>
71.17130310,55.29162374,-163.52842030,43.96942924,-167.17271085,64.79077353
136.97520254,13.52446069,-20.98499834,20.56072879,-13.51788579,0.77128060
-0.39204327,-2.62016316

>  <Name>
F1359-1163

>  <RI>
1.54607e+07

>  <Rbt.Current_Directory>
/home/adria/Escritorio/rDock_CMTR_LC/2pxcA_model/inputs_sah

>  <Rbt.Executable>
rbdock ($Id: //depot/dev/client3/rdock/2013.1/src/exe/rbdock.cxx#4 $)

>  <Rbt.Library>
libRbt.so (2013.1, Build901 2013/11/27)

>  <Rbt.Parameter_File>
/home/adria/Escritorio/rDock_2013.1_src/data/scripts/dock.prm

>  <Rbt.Receptor>
sah_rdock.prm

>  <SCORE>
-288.242

>  <SCORE.INTER>
-8.96683

>  <SCORE.INTER.CONST>
1

>  <SCORE.INTER.POLAR>
-0.435018

>  <SCORE.INTER.REPUL>
0

>  <SCORE.INTER.ROT>
8

>  <SCORE.INTER.VDW>
-20.8878

>  <SCORE.INTER.norm>
-0.320244

>  <SCORE.INTRA>
-284.347

>  <SCORE.INTRA.DIHEDRAL>
-28.685

>  <SCORE.INTRA.DIHEDRAL.0>
56.9892

>  <SCORE.INTRA.POLAR>
0

>  <SCORE.INTRA.POLAR.0>
0

>  <SCORE.INTRA.REPUL>
0

>  <SCORE.INTRA.REPUL.0>
0

>  <SCORE.INTRA.VDW>
-270.004

>  <SCORE.INTRA.VDW.0>
274.289

>  <SCORE.INTRA.norm>
-10.1552

>  <SCORE.RESTR>
0

>  <SCORE.RESTR.CAVITY>
0

>  <SCORE.RESTR.norm>
0

>  <SCORE.SYSTEM>
5.07154

>  <SCORE.SYSTEM.CONST>
0

>  <SCORE.SYSTEM.DIHEDRAL>
9.36296

>  <SCORE.SYSTEM.POLAR>
-4.03195

>  <SCORE.SYSTEM.VDW>
14.0987

>  <SCORE.SYSTEM.norm>
0.181126

>  <SCORE.heavy>
28

>  <SCORE.norm>
-10.2944

$$$$
F1359-1163
  rDOCK(R)          3D
libRbt.so/2013.1/901 2013/11/27
 28 30  0  0  0  0  0  0  0  0999 V2000
  -20.9756   22.9688  -11.4151 C   0  0  0  0  0  0
  -20.1404   22.3019  -12.3414 O   0  0  0  0  0  0
  -20.4461   22.5916  -13.7099 C   0  0  0  0  0  0
  -19.4531   21.9670  -14.7070 C   0  0  0  0  0  0
  -19.3067   20.5542  -14.5643 N   0  0  0  0  0  0
  -18.4566   19.8932  -15.4790 C   0  0  0  0  0  0
  -19.1122   18.2918  -15.8473 C   0  0  0  0  0  0
  -19.0572   18.2907  -13.6409 S   0  0  0  0  0  0
  -20.0651   19.6829  -13.7996 C   0  0  0  0  0  0
  -21.2576   19.6250  -13.3209 N   0  0  0  0  0  0
  -21.5937   18.3754  -12.7695 C   0  0  0  0  0  0
  -21.2849   17.3110  -13.3077 O   0  0  0  0  0  0
  -22.3441   18.3875  -11.3722 C   0  0  0  0  0  0
  -22.7942   19.6709  -10.4670 C   0  0  0  0  0  0
  -23.9299   20.7989  -10.7926 C   0  0  0  0  0  0
  -24.1492   21.2898  -12.5199 C   0  0  0  0  0  0
  -24.1124   23.1094  -12.8998 C   0  0  0  0  0  0
  -24.2381   24.3195  -11.2536 C   0  0  0  0  0  0
  -24.2857   23.6181   -9.6502 C   0  0  0  0  0  0
  -24.0558   21.9405   -9.4592 C   0  0  0  0  0  0
  -18.1848   17.0506  -17.1911 C   0  0  0  0  0  0
  -16.5795   17.7308  -17.7934 C   0  0  0  0  0  0
  -16.0578   19.3534  -17.2628 C   0  0  0  0  0  0
  -16.9919   20.3768  -16.1799 C   0  0  0  0  0  0
  -15.2235   16.7895  -18.3670 S   0  0  0  0  0  0
  -15.7561   15.5446  -18.8990 O   0  0  0  0  0  0
  -14.3903   17.6508  -19.1731 O   0  0  0  0  0  0
  -14.4900   16.4405  -16.8083 C   0  0  0  0  0  0
  1  2  1  0  0  0
  2  3  1  0  0  0
  3  4  1  0  0  0
  4  5  1  0  0  0
  5  6  1  0  0  0
  5  9  1  0  0  0
  6  7  2  0  0  0
  6 24  1  0  0  0
  7  8  1  0  0  0
  7 21  1  0  0  0
  8  9  1  0  0  0
  9 10  2  0  0  0
 10 11  1  0  0  0
 11 12  2  0  0  0
 11 13  1  0  0  0
 13 14  1  0  0  0
 14 15  1  0  0  0
 15 16  2  0  0  0
 15 20  1  0  0  0
 16 17  1  0  0  0
 17 18  2  0  0  0
 18 19  1  0  0  0
 19 20  2  0  0  0
 21 22  2  0  0  0
 22 23  1  0  0  0
 22 25  1  0  0  0
 23 24  2  0  0  0
 25 26  2  0  0  0
 25 27  2  0  0  0
 25 28  1  0  0  0
M  END
>  <CHROM.0>
-61.70793862,65.80506951,-8.86156077,-71.83954154,-30.54000498,-57.39943373
-37.36246269,-163.35509937

>  <CHROM.1>
174.64623870,55.23290283,177.35892900,-41.80643422,0.17827470,67.79568717
-34.62339705,27.43204826,-19.63259226,19.61466431,-14.31139616,-2.69824584
-0.72832148,-3.14102274

>  <Name>
F1359-1163

>  <RI>
1.54607e+07

>  <Rbt.Current_Directory>
/home/adria/Escritorio/rDock_CMTR_LC/2pxcA_model/inputs_sah

>  <Rbt.Executable>
rbdock ($Id: //depot/dev/client3/rdock/2013.1/src/exe/rbdock.cxx#4 $)

>  <Rbt.Library>
libRbt.so (2013.1, Build901 2013/11/27)

>  <Rbt.Parameter_File>
/home/adria/Escritorio/rDock_2013.1_src/data/scripts/dock.prm

>  <Rbt.Receptor>
sah_rdock.prm

>  <SCORE>
-303.709

>  <SCORE.INTER>
-10.4705

>  <SCORE.INTER.CONST>
1

>  <SCORE.INTER.POLAR>
0

>  <SCORE.INTER.REPUL>
0

>  <SCORE.INTER.ROT>
8

>  <SCORE.INTER.VDW>
-23.8705

>  <SCORE.INTER.norm>
-0.373947

>  <SCORE.INTRA>
-286.635

>  <SCORE.INTRA.DIHEDRAL>
-27.0472

>  <SCORE.INTRA.DIHEDRAL.0>
56.9892

>  <SCORE.INTRA.POLAR>
0

>  <SCORE.INTRA.POLAR.0>
0

>  <SCORE.INTRA.REPUL>
0

>  <SCORE.INTRA.REPUL.0>
0

>  <SCORE.INTRA.VDW>
-273.112

>  <SCORE.INTRA.VDW.0>
274.289

>  <SCORE.INTRA.norm>
-10.237

>  <SCORE.RESTR>
0

>  <SCORE.RESTR.CAVITY>
0

>  <SCORE.RESTR.norm>
0

>  <SCORE.SYSTEM>
-6.60369

>  <SCORE.SYSTEM.CONST>
0

>  <SCORE.SYSTEM.DIHEDRAL>
9.291

>  <SCORE.SYSTEM.POLAR>
-4.29068

>  <SCORE.SYSTEM.VDW>
3.33913

>  <SCORE.SYSTEM.norm>
-0.235846

>  <SCORE.heavy>
28

>  <SCORE.norm>
-10.8468

$$$$
F1359-1163
  rDOCK(R)          3D
libRbt.so/2013.1/901 2013/11/27
 28 30  0  0  0  0  0  0  0  0999 V2000
  -24.1535   19.1706  -14.3505 C   0  0  0  0  0  0
  -24.8316   18.3997  -13.3780 O   0  0  0  0  0  0
  -23.9604   17.6830  -12.4962 C   0  0  0  0  0  0
  -23.3213   18.5679  -11.4103 C   0  0  0  0  0  0
  -22.2711   19.4045  -11.8947 N   0  0  0  0  0  0
  -22.3515   20.7843  -11.6015 C   0  0  0  0  0  0
  -21.7091   21.7179  -12.9600 C   0  0  0  0  0  0
  -20.0741   20.2960  -12.5407 S   0  0  0  0  0  0
  -21.2885   19.1025  -12.8235 C   0  0  0  0  0  0
  -21.1280   18.2980  -13.8144 N   0  0  0  0  0  0
  -19.9757   18.5539  -14.5793 C   0  0  0  0  0  0
  -19.5762   19.6962  -14.8106 O   0  0  0  0  0  0
  -19.1603   17.2929  -15.0898 C   0  0  0  0  0  0
  -17.6590   17.2406  -15.7321 C   0  0  0  0  0  0
  -17.0078   18.2038  -16.8795 C   0  0  0  0  0  0
  -16.0734   17.4070  -18.2079 C   0  0  0  0  0  0
  -14.3656   18.0545  -18.5553 C   0  0  0  0  0  0
  -13.9417   19.8451  -17.6585 C   0  0  0  0  0  0
  -15.1152   20.5950  -16.5975 C   0  0  0  0  0  0
  -16.5350   19.7490  -16.1826 C   0  0  0  0  0  0
  -21.7140   23.7687  -12.9328 C   0  0  0  0  0  0
  -22.2900   24.4549  -11.3204 C   0  0  0  0  0  0
  -22.8524   23.3427  -10.0424 C   0  0  0  0  0  0
  -22.8995   21.5936  -10.2177 C   0  0  0  0  0  0
  -21.8402   26.0059  -10.6527 S   0  0  0  0  0  0
  -21.8351   26.9629  -11.7484 O   0  0  0  0  0  0
  -22.6355   26.2303   -9.4682 O   0  0  0  0  0  0
  -20.1696   25.6281  -10.2580 C   0  0  0  0  0  0
  1  2  1  0  0  0
  2  3  1  0  0  0
  3  4  1  0  0  0
  4  5  1  0  0  0
  5  6  1  0  0  0
  5  9  1  0  0  0
  6  7  2  0  0  0
  6 24  1  0  0  0
  7  8  1  0  0  0
  7 21  1  0  0  0
  8  9  1  0  0  0
  9 10  2  0  0  0
 10 11  1  0  0  0
 11 12  2  0  0  0
 11 13  1  0  0  0
 13 14  1  0  0  0
 14 15  1  0  0  0
 15 16  2  0  0  0
 15 20  1  0  0  0
 16 17  1  0  0  0
 17 18  2  0  0  0
 18 19  1  0  0  0
 19 20  2  0  0  0
 21 22  2  0  0  0
 22 23  1  0  0  0
 22 25  1  0  0  0
 23 24  2  0  0  0
 25 26  2  0  0  0
 25 27  2  0  0  0
 25 28  1  0  0  0
M  END
>  <CHROM.0>
-62.92720038,-75.51249205,110.14568883,60.32383523,-29.91753613,179.34568012
84.20608261,-159.13664541

>  <CHROM.1>
76.98189743,-75.11891498,127.84810144,-37.28520505,-166.91428350,-45.61136784
-134.89297608,40.66134925,-20.51186355,20.91728162,-13.28963004,2.26344496
0.51218839,0.38945543

>  <Name>
F1359-1163

>  <RI>
1.54607e+07

>  <Rbt.Current_Directory>
/home/adria/Escritorio/rDock_CMTR_LC/2pxcA_model/inputs_sah

>  <Rbt.Executable>
rbdock ($Id: //depot/dev/client3/rdock/2013.1/src/exe/rbdock.cxx#4 $)

>  <Rbt.Library>
libRbt.so (2013.1, Build901 2013/11/27)

>  <Rbt.Parameter_File>
/home/adria/Escritorio/rDock_2013.1_src/data/scripts/dock.prm

>  <Rbt.Receptor>
sah_rdock.prm

>  <SCORE>
-310.523

>  <SCORE.INTER>
-18.4197

>  <SCORE.INTER.CONST>
1

>  <SCORE.INTER.POLAR>
-1.79577

>  <SCORE.INTER.REPUL>
0

>  <SCORE.INTER.ROT>
8

>  <SCORE.INTER.VDW>
-25.714

>  <SCORE.INTER.norm>
-0.657845

>  <SCORE.INTRA>
-284.795

>  <SCORE.INTRA.DIHEDRAL>
-30.9928

>  <SCORE.INTRA.DIHEDRAL.0>
56.9892

>  <SCORE.INTRA.POLAR>
0

>  <SCORE.INTRA.POLAR.0>
0

>  <SCORE.INTRA.REPUL>
0

>  <SCORE.INTRA.REPUL.0>
0

>  <SCORE.INTRA.VDW>
-269.298

>  <SCORE.INTRA.VDW.0>
274.289

>  <SCORE.INTRA.norm>
-10.1712

>  <SCORE.RESTR>
0

>  <SCORE.RESTR.CAVITY>
0

>  <SCORE.RESTR.norm>
0

>  <SCORE.SYSTEM>
-7.30864

>  <SCORE.SYSTEM.CONST>
0

>  <SCORE.SYSTEM.DIHEDRAL>
10.0199

>  <SCORE.SYSTEM.POLAR>
-4.66141

>  <SCORE.SYSTEM.REPUL>
0.0427102

>  <SCORE.SYSTEM.VDW>
3.31667

>  <SCORE.SYSTEM.norm>
-0.261023

>  <SCORE.heavy>
28

>  <SCORE.norm>
-11.0901

$$$$
F1359-1163
  rDOCK(R)          3D
libRbt.so/2013.1/901 2013/11/27
 28 30  0  0  0  0  0  0  0  0999 V2000
  -24.0006   19.7499   -8.1496 C   0  0  0  0  0  0
  -23.4757   19.1928   -9.3388 O   0  0  0  0  0  0
  -22.7618   20.1306  -10.1519 C   0  0  0  0  0  0
  -22.4102   19.5896  -11.5498 C   0  0  0  0  0  0
  -21.5927   20.4715  -12.3189 N   0  0  0  0  0  0
  -20.7572   19.8930  -13.3004 C   0  0  0  0  0  0
  -19.2410   20.7994  -13.3980 C   0  0  0  0  0  0
  -20.7612   22.3842  -13.6184 S   0  0  0  0  0  0
  -21.3150   21.8090  -12.0882 C   0  0  0  0  0  0
  -21.2719   22.6148  -11.0865 N   0  0  0  0  0  0
  -20.7098   23.8694  -11.3842 C   0  0  0  0  0  0
  -19.6365   24.2425  -10.9080 O   0  0  0  0  0  0
  -21.4929   24.7768  -12.4231 C   0  0  0  0  0  0
  -23.0126   25.3672  -12.3194 C   0  0  0  0  0  0
  -24.4174   24.5454  -12.1794 C   0  0  0  0  0  0
  -24.9687   24.1105  -10.5122 C   0  0  0  0  0  0
  -25.4173   22.3336  -10.1996 C   0  0  0  0  0  0
  -25.6153   21.2010  -11.8932 C   0  0  0  0  0  0
  -25.2866   21.9039  -13.4626 C   0  0  0  0  0  0
  -24.6396   23.4773  -13.5602 C   0  0  0  0  0  0
  -17.7416   20.2225  -14.6729 C   0  0  0  0  0  0
  -18.2357   18.8143  -15.7571 C   0  0  0  0  0  0
  -19.8399   18.0610  -15.5432 C   0  0  0  0  0  0
  -21.0120   18.5788  -14.3388 C   0  0  0  0  0  0
  -17.5836   18.4686  -17.3410 S   0  0  0  0  0  0
  -18.2822   17.2983  -17.8498 O   0  0  0  0  0  0
  -17.5502   19.7030  -18.0899 O   0  0  0  0  0  0
  -15.9767   17.9627  -16.8399 C   0  0  0  0  0  0
  1  2  1  0  0  0
  2  3  1  0  0  0
  3  4  1  0  0  0
  4  5  1  0  0  0
  5  6  1  0  0  0
  5  9  1  0  0  0
  6  7  2  0  0  0
  6 24  1  0  0  0
  7  8  1  0  0  0
  7 21  1  0  0  0
  8  9  1  0  0  0
  9 10  2  0  0  0
 10 11  1  0  0  0
 11 12  2  0  0  0
 11 13  1  0  0  0
 13 14  1  0  0  0
 14 15  1  0  0  0
 15 16  2  0  0  0
 15 20  1  0  0  0
 16 17  1  0  0  0
 17 18  2  0  0  0
 18 19  1  0  0  0
 19 20  2  0  0  0
 21 22  2  0  0  0
 22 23  1  0  0  0
 22 25  1  0  0  0
 23 24  2  0  0  0
 25 26  2  0  0  0
 25 27  2  0  0  0
 25 28  1  0  0  0
M  END
>  <CHROM.0>
175.96954073,-70.88368314,72.56212058,65.57775841,-29.53969250,57.18998990
-36.95351535,-161.01151695

>  <CHROM.1>
-169.76782899,-174.50807406,153.04071672,-113.01553844,60.34980415,-59.62370447
87.26838101,-178.31398513,-21.14921736,21.02058332,-13.23936240,2.70073947
0.77767343,-0.00468319

>  <Name>
F1359-1163

>  <RI>
1.54607e+07

>  <Rbt.Current_Directory>
/home/adria/Escritorio/rDock_CMTR_LC/2pxcA_model/inputs_sah

>  <Rbt.Executable>
rbdock ($Id: //depot/dev/client3/rdock/2013.1/src/exe/rbdock.cxx#4 $)

>  <Rbt.Library>
libRbt.so (2013.1, Build901 2013/11/27)

>  <Rbt.Parameter_File>
/home/adria/Escritorio/rDock_2013.1_src/data/scripts/dock.prm

>  <Rbt.Receptor>
sah_rdock.prm

>  <SCORE>
-299.733

>  <SCORE.INTER>
-12.4335

>  <SCORE.INTER.CONST>
1

>  <SCORE.INTER.POLAR>
-1.37581

>  <SCORE.INTER.REPUL>
0.0176013

>  <SCORE.INTER.ROT>
8

>  <SCORE.INTER.VDW>
-21.2438

>  <SCORE.INTER.norm>
-0.444054

>  <SCORE.INTRA>
-279.954

>  <SCORE.INTRA.DIHEDRAL>
-11.4663

>  <SCORE.INTRA.DIHEDRAL.0>
56.9892

>  <SCORE.INTRA.POLAR>
0

>  <SCORE.INTRA.POLAR.0>
0

>  <SCORE.INTRA.REPUL>
0

>  <SCORE.INTRA.REPUL.0>
0

>  <SCORE.INTRA.VDW>
-274.22

>  <SCORE.INTRA.VDW.0>
274.289

>  <SCORE.INTRA.norm>
-9.99834

>  <SCORE.RESTR>
0

>  <SCORE.RESTR.CAVITY>
0

>  <SCORE.RESTR.norm>
0

>  <SCORE.SYSTEM>
-7.34549

>  <SCORE.SYSTEM.CONST>
0

>  <SCORE.SYSTEM.DIHEDRAL>
6.55015

>  <SCORE.SYSTEM.POLAR>
-4.02323

>  <SCORE.SYSTEM.REPUL>
0.0345393

>  <SCORE.SYSTEM.VDW>
2.88572

>  <SCORE.SYSTEM.norm>
-0.262339

>  <SCORE.heavy>
28

>  <SCORE.norm>
-10.7047

$$$$
F1359-1163
  rDOCK(R)          3D
libRbt.so/2013.1/901 2013/11/27
 28 30  0  0  0  0  0  0  0  0999 V2000
  -24.0324   19.0169  -17.5157 C   0  0  0  0  0  0
  -24.0301   19.5219  -16.1947 O   0  0  0  0  0  0
  -24.7702   18.7208  -15.2670 C   0  0  0  0  0  0
  -24.7693   19.2816  -13.8332 C   0  0  0  0  0  0
  -23.4631   19.5283  -13.3129 N   0  0  0  0  0  0
  -23.2001   20.8190  -12.8019 C   0  0  0  0  0  0
  -21.5255   21.2671  -13.1555 C   0  0  0  0  0  0
  -21.2983   19.3045  -12.1718 S   0  0  0  0  0  0
  -22.3223   18.7540  -13.4475 C   0  0  0  0  0  0
  -21.8486   17.8897  -14.2741 N   0  0  0  0  0  0
  -20.5034   17.5511  -14.0409 C   0  0  0  0  0  0
  -20.0689   17.3082  -12.9139 O   0  0  0  0  0  0
  -19.5642   17.4306  -15.3133 C   0  0  0  0  0  0
  -18.5058   18.5244  -15.9073 C   0  0  0  0  0  0
  -16.8772   18.5380  -15.7819 C   0  0  0  0  0  0
  -16.0214   20.0821  -16.1769 C   0  0  0  0  0  0
  -14.6167   19.9911  -17.3914 C   0  0  0  0  0  0
  -13.9728   18.0912  -17.7985 C   0  0  0  0  0  0
  -14.7893   16.7161  -17.0859 C   0  0  0  0  0  0
  -16.2204   16.9580  -16.1932 C   0  0  0  0  0  0
  -20.7851   23.1040  -12.6226 C   0  0  0  0  0  0
  -21.9874   24.0932  -11.6334 C   0  0  0  0  0  0
  -23.6230   23.4441  -11.3331 C   0  0  0  0  0  0
  -24.1842   21.8886  -11.9314 C   0  0  0  0  0  0
  -21.5772   25.3304  -10.4695 S   0  0  0  0  0  0
  -22.0048   26.6051  -11.0252 O   0  0  0  0  0  0
  -22.0319   24.8912   -9.1710 O   0  0  0  0  0  0
  -19.8283   25.2365  -10.6174 C   0  0  0  0  0  0
  1  2  1  0  0  0
  2  3  1  0  0  0
  3  4  1  0  0  0
  4  5  1  0  0  0
  5  6  1  0  0  0
  5  9  1  0  0  0
  6  7  2  0  0  0
  6 24  1  0  0  0
  7  8  1  0  0  0
  7 21  1  0  0  0
  8  9  1  0  0  0
  9 10  2  0  0  0
 10 11  1  0  0  0
 11 12  2  0  0  0
 11 13  1  0  0  0
 13 14  1  0  0  0
 14 15  1  0  0  0
 15 16  2  0  0  0
 15 20  1  0  0  0
 16 17  1  0  0  0
 17 18  2  0  0  0
 18 19  1  0  0  0
 19 20  2  0  0  0
 21 22  2  0  0  0
 22 23  1  0  0  0
 22 25  1  0  0  0
 23 24  2  0  0  0
 25 26  2  0  0  0
 25 27  2  0  0  0
 25 28  1  0  0  0
M  END
>  <CHROM.0>
-165.81743638,-167.10335557,-42.97927566,63.70548980,-29.86231709,-60.44470592
-156.56302760,-166.76458993

>  <CHROM.1>
-179.67549918,-53.89676546,126.58638660,45.10805900,99.59079935,103.14228174
-164.82309700,111.43113616,-20.79580784,20.57513664,-13.64469314,0.98190253
-0.17875921,-2.55145454

>  <Name>
F1359-1163

>  <RI>
1.54607e+07

>  <Rbt.Current_Directory>
/home/adria/Escritorio/rDock_CMTR_LC/2pxcA_model/inputs_sah

>  <Rbt.Executable>
rbdock ($Id: //depot/dev/client3/rdock/2013.1/src/exe/rbdock.cxx#4 $)

>  <Rbt.Library>
libRbt.so (2013.1, Build901 2013/11/27)

>  <Rbt.Parameter_File>
/home/adria/Escritorio/rDock_2013.1_src/data/scripts/dock.prm

>  <Rbt.Receptor>
sah_rdock.prm

>  <SCORE>
-306.633

>  <SCORE.INTER>
-18.4612

>  <SCORE.INTER.CONST>
1

>  <SCORE.INTER.POLAR>
-2.25303

>  <SCORE.INTER.REPUL>
0.0415484

>  <SCORE.INTER.ROT>
8

>  <SCORE.INTER.VDW>
-24.4086

>  <SCORE.INTER.norm>
-0.659327

>  <SCORE.INTRA>
-282.552

>  <SCORE.INTRA.DIHEDRAL>
-22.2754

>  <SCORE.INTRA.DIHEDRAL.0>
56.9892

>  <SCORE.INTRA.POLAR>
0

>  <SCORE.INTRA.POLAR.0>
0

>  <SCORE.INTRA.REPUL>
0

>  <SCORE.INTRA.REPUL.0>
0

>  <SCORE.INTRA.VDW>
-271.415

>  <SCORE.INTRA.VDW.0>
274.289

>  <SCORE.INTRA.norm>
-10.0912

>  <SCORE.RESTR>
0

>  <SCORE.RESTR.CAVITY>
0

>  <SCORE.RESTR.norm>
0

>  <SCORE.SYSTEM>
-5.61924

>  <SCORE.SYSTEM.CONST>
0

>  <SCORE.SYSTEM.DIHEDRAL>
7.54564

>  <SCORE.SYSTEM.POLAR>
-3.73206

>  <SCORE.SYSTEM.VDW>
3.29693

>  <SCORE.SYSTEM.norm>
-0.200687

>  <SCORE.heavy>
28

>  <SCORE.norm>
-10.9512

$$$$
F1359-1163
  rDOCK(R)          3D
libRbt.so/2013.1/901 2013/11/27
 28 30  0  0  0  0  0  0  0  0999 V2000
  -25.4471   17.4650  -16.1377 C   0  0  0  0  0  0
  -24.1371   16.9470  -16.2631 O   0  0  0  0  0  0
  -23.2243   17.4344  -15.2735 C   0  0  0  0  0  0
  -22.8799   18.9262  -15.4366 C   0  0  0  0  0  0
  -21.9232   19.4023  -14.4902 N   0  0  0  0  0  0
  -22.3644   20.3518  -13.5415 C   0  0  0  0  0  0
  -21.0623   21.5005  -13.2021 C   0  0  0  0  0  0
  -20.0798   19.5519  -12.8722 S   0  0  0  0  0  0
  -20.5465   19.2488  -14.5060 C   0  0  0  0  0  0
  -19.6179   19.0612  -15.3763 N   0  0  0  0  0  0
  -18.3154   19.1896  -14.8611 C   0  0  0  0  0  0
  -17.9874   18.7218  -13.7696 O   0  0  0  0  0  0
  -17.2494   19.9182  -15.7822 C   0  0  0  0  0  0
  -16.4160   19.3151  -17.0514 C   0  0  0  0  0  0
  -15.3934   18.0418  -17.0861 C   0  0  0  0  0  0
  -14.6255   17.6294  -18.6713 C   0  0  0  0  0  0
  -14.7533   15.8662  -19.2469 C   0  0  0  0  0  0
  -15.3902   14.5525  -17.8120 C   0  0  0  0  0  0
  -15.8399   15.1371  -16.2242 C   0  0  0  0  0  0
  -15.9076   16.8148  -15.9340 C   0  0  0  0  0  0
  -21.3441   23.0713  -11.9139 C   0  0  0  0  0  0
  -22.9897   23.0195  -11.0821 C   0  0  0  0  0  0
  -24.1567   21.7421  -11.5211 C   0  0  0  0  0  0
  -23.8408   20.4985  -12.7237 C   0  0  0  0  0  0
  -23.3650   23.7056   -9.5194 S   0  0  0  0  0  0
  -23.4041   22.6090   -8.5643 O   0  0  0  0  0  0
  -22.5030   24.8458   -9.3130 O   0  0  0  0  0  0
  -25.0213   24.1889   -9.8548 C   0  0  0  0  0  0
  1  2  1  0  0  0
  2  3  1  0  0  0
  3  4  1  0  0  0
  4  5  1  0  0  0
  5  6  1  0  0  0
  5  9  1  0  0  0
  6  7  2  0  0  0
  6 24  1  0  0  0
  7  8  1  0  0  0
  7 21  1  0  0  0
  8  9  1  0  0  0
  9 10  2  0  0  0
 10 11  1  0  0  0
 11 12  2  0  0  0
 11 13  1  0  0  0
 13 14  1  0  0  0
 14 15  1  0  0  0
 15 16  2  0  0  0
 15 20  1  0  0  0
 16 17  1  0  0  0
 17 18  2  0  0  0
 18 19  1  0  0  0
 19 20  2  0  0  0
 21 22  2  0  0  0
 22 23  1  0  0  0
 22 25  1  0  0  0
 23 24  2  0  0  0
 25 26  2  0  0  0
 25 27  2  0  0  0
 25 28  1  0  0  0
M  END
>  <CHROM.0>
39.78155884,-75.31586815,-47.74594648,66.55859569,-29.98270424,58.68018563
81.82513829,-163.39681294

>  <CHROM.1>
-69.04367621,-177.27766909,-113.56073027,42.27824864,-79.42755353,-59.01115721
179.95079790,-102.50446210,-20.57019312,19.81116769,-13.88703079,2.24727914
0.09003486,0.76936591

>  <Name>
F1359-1163

>  <RI>
1.54607e+07

>  <Rbt.Current_Directory>
/home/adria/Escritorio/rDock_CMTR_LC/2pxcA_model/inputs_sah

>  <Rbt.Executable>
rbdock ($Id: //depot/dev/client3/rdock/2013.1/src/exe/rbdock.cxx#4 $)

>  <Rbt.Library>
libRbt.so (2013.1, Build901 2013/11/27)

>  <Rbt.Parameter_File>
/home/adria/Escritorio/rDock_2013.1_src/data/scripts/dock.prm

>  <Rbt.Receptor>
sah_rdock.prm

>  <SCORE>
-292.121

>  <SCORE.INTER>
-4.79263

>  <SCORE.INTER.CONST>
1

>  <SCORE.INTER.POLAR>
0

>  <SCORE.INTER.REPUL>
0

>  <SCORE.INTER.ROT>
8

>  <SCORE.INTER.VDW>
-18.1926

>  <SCORE.INTER.norm>
-0.171165

>  <SCORE.INTRA>
-284.142

>  <SCORE.INTRA.DIHEDRAL>
-30.5708

>  <SCORE.INTRA.DIHEDRAL.0>
56.9892

>  <SCORE.INTRA.POLAR>
0

>  <SCORE.INTRA.POLAR.0>
0

>  <SCORE.INTRA.REPUL>
0

>  <SCORE.INTRA.REPUL.0>
0

>  <SCORE.INTRA.VDW>
-268.857

>  <SCORE.INTRA.VDW.0>
274.289

>  <SCORE.INTRA.norm>
-10.1479

>  <SCORE.RESTR>
0

>  <SCORE.RESTR.CAVITY>
0

>  <SCORE.RESTR.norm>
0

>  <SCORE.SYSTEM>
-3.1858

>  <SCORE.SYSTEM.CONST>
0

>  <SCORE.SYSTEM.DIHEDRAL>
8.55311

>  <SCORE.SYSTEM.POLAR>
-3.92446

>  <SCORE.SYSTEM.REPUL>
0.166316

>  <SCORE.SYSTEM.VDW>
5.04924

>  <SCORE.SYSTEM.norm>
-0.113779

>  <SCORE.heavy>
28

>  <SCORE.norm>
-10.4329

$$$$
F1359-1163
  rDOCK(R)          3D
libRbt.so/2013.1/901 2013/11/27
 28 30  0  0  0  0  0  0  0  0999 V2000
  -26.2634   17.8724  -12.7641 C   0  0  0  0  0  0
  -24.9744   17.6365  -12.2323 O   0  0  0  0  0  0
  -23.9782   18.5523  -12.7004 C   0  0  0  0  0  0
  -22.5639   18.2426  -12.1768 C   0  0  0  0  0  0
  -21.5826   19.2024  -12.5686 N   0  0  0  0  0  0
  -21.7846   20.5409  -12.1638 C   0  0  0  0  0  0
  -21.2062   21.6363  -13.4269 C   0  0  0  0  0  0
  -19.4614   20.3266  -13.0933 S   0  0  0  0  0  0
  -20.5654   19.0633  -13.4988 C   0  0  0  0  0  0
  -20.3235   18.3616  -14.5494 N   0  0  0  0  0  0
  -19.1870   18.7770  -15.2667 C   0  0  0  0  0  0
  -18.8648   19.9620  -15.3658 O   0  0  0  0  0  0
  -18.2851   17.6375  -15.9022 C   0  0  0  0  0  0
  -17.3045   17.7210  -17.2062 C   0  0  0  0  0  0
  -16.9113   16.5385  -18.2623 C   0  0  0  0  0  0
  -17.9920   15.0896  -18.3352 C   0  0  0  0  0  0
  -17.1889   13.4194  -18.1870 C   0  0  0  0  0  0
  -15.1506   13.4418  -18.3732 C   0  0  0  0  0  0
  -14.3035   14.9617  -18.5673 C   0  0  0  0  0  0
  -15.1630   16.4267  -18.4298 C   0  0  0  0  0  0
  -21.3867   23.6698  -13.2301 C   0  0  0  0  0  0
  -22.0409   24.1669  -11.5786 C   0  0  0  0  0  0
  -22.5233   22.9077  -10.4089 C   0  0  0  0  0  0
  -22.4183   21.1818  -10.7293 C   0  0  0  0  0  0
  -21.7344   25.6884  -10.7756 S   0  0  0  0  0  0
  -21.4481   26.6720  -11.8085 O   0  0  0  0  0  0
  -22.7860   25.9039   -9.8094 O   0  0  0  0  0  0
  -20.2148   25.2573  -10.0046 C   0  0  0  0  0  0
  1  2  1  0  0  0
  2  3  1  0  0  0
  3  4  1  0  0  0
  4  5  1  0  0  0
  5  6  1  0  0  0
  5  9  1  0  0  0
  6  7  2  0  0  0
  6 24  1  0  0  0
  7  8  1  0  0  0
  7 21  1  0  0  0
  8  9  1  0  0  0
  9 10  2  0  0  0
 10 11  1  0  0  0
 11 12  2  0  0  0
 11 13  1  0  0  0
 13 14  1  0  0  0
 14 15  1  0  0  0
 15 16  2  0  0  0
 15 20  1  0  0  0
 16 17  1  0  0  0
 17 18  2  0  0  0
 18 19  1  0  0  0
 19 20  2  0  0  0
 21 22  2  0  0  0
 22 23  1  0  0  0
 22 25  1  0  0  0
 23 24  2  0  0  0
 25 26  2  0  0  0
 25 27  2  0  0  0
 25 28  1  0  0  0
M  END
>  <CHROM.0>
174.10880973,-76.67893100,-41.55314978,-63.22655086,-30.51558603,-56.34783767
-158.24891026,-48.78639378

>  <CHROM.1>
-176.87459300,-176.10664233,59.70620649,-35.40146890,153.75913317,-149.59085430
19.02346578,26.02567719,-20.38527925,20.05042387,-13.72256917,2.09955720
0.47858584,0.40106095

>  <Name>
F1359-1163

>  <RI>
1.54607e+07

>  <Rbt.Current_Directory>
/home/adria/Escritorio/rDock_CMTR_LC/2pxcA_model/inputs_sah

>  <Rbt.Executable>
rbdock ($Id: //depot/dev/client3/rdock/2013.1/src/exe/rbdock.cxx#4 $)

>  <Rbt.Library>
libRbt.so (2013.1, Build901 2013/11/27)

>  <Rbt.Parameter_File>
/home/adria/Escritorio/rDock_2013.1_src/data/scripts/dock.prm

>  <Rbt.Receptor>
sah_rdock.prm

>  <SCORE>
-305.755

>  <SCORE.INTER>
-16.9198

>  <SCORE.INTER.CONST>
1

>  <SCORE.INTER.POLAR>
-2.54333

>  <SCORE.INTER.REPUL>
0

>  <SCORE.INTER.ROT>
8

>  <SCORE.INTER.VDW>
-21.6724

>  <SCORE.INTER.norm>
-0.604277

>  <SCORE.INTRA>
-284.013

>  <SCORE.INTRA.DIHEDRAL>
-31.664

>  <SCORE.INTRA.DIHEDRAL.0>
56.9892

>  <SCORE.INTRA.POLAR>
0

>  <SCORE.INTRA.POLAR.0>
0

>  <SCORE.INTRA.REPUL>
0

>  <SCORE.INTRA.REPUL.0>
0

>  <SCORE.INTRA.VDW>
-268.181

>  <SCORE.INTRA.VDW.0>
274.289

>  <SCORE.INTRA.norm>
-10.1433

>  <SCORE.RESTR>
0

>  <SCORE.RESTR.CAVITY>
0

>  <SCORE.RESTR.norm>
0

>  <SCORE.SYSTEM>
-4.82282

>  <SCORE.SYSTEM.CONST>
0

>  <SCORE.SYSTEM.DIHEDRAL>
9.58171

>  <SCORE.SYSTEM.POLAR>
-3.6998

>  <SCORE.SYSTEM.REPUL>
0.0592957

>  <SCORE.SYSTEM.VDW>
2.66916

>  <SCORE.SYSTEM.norm>
-0.172244

>  <SCORE.heavy>
28

>  <SCORE.norm>
-10.9198

$$$$
