F5854-4892
  rDOCK(R)          3D
libRbt.so/2013.1/901 2013/11/27
 21 22  0  0  0  0  0  0  0  0999 V2000
  -18.5255   18.5467  -16.9558 C   0  0  0  0  0  0
  -19.2595   19.4373  -16.1312 O   0  0  0  0  0  0
  -18.4959   20.5173  -15.5790 C   0  0  0  0  0  0
  -19.3069   21.5654  -14.7142 C   0  0  0  0  0  0
  -20.1573   21.0701  -13.5672 N   0  0  0  0  0  0
  -21.8517   20.5184  -13.6167 C   0  0  0  0  0  0
  -22.6931   18.6589  -13.6603 C   0  0  0  0  0  0
  -22.3800   17.2771  -13.1770 C   0  0  0  0  0  0
  -23.6734   16.1113  -13.1052 S   0  0  0  0  0  0
  -24.6109   16.9579  -14.2016 C   0  0  0  0  0  0
  -23.7996   17.8983  -14.7613 C   0  0  0  0  0  0
  -19.4508   20.7366  -12.4623 C   0  0  0  0  0  0
  -18.2629   20.4959  -12.3378 O   0  0  0  0  0  0
  -20.3109   20.7703  -11.4672 N   0  0  0  0  0  0
  -21.6348   21.2650  -11.7762 C   0  0  0  0  0  0
  -23.4832   20.8653  -10.9952 C   0  0  0  0  0  0
  -24.2151   22.3271   -9.7652 C   0  0  0  0  0  0
  -23.4754   24.0620   -9.8835 C   0  0  0  0  0  0
  -21.8359   24.2834  -10.5098 C   0  0  0  0  0  0
  -21.0543   23.1423  -11.6514 C   0  0  0  0  0  0
  -20.0953   20.2680  -10.6147 H   0  0  0  0  0  0
  1  2  1  0  0  0
  2  3  1  0  0  0
  3  4  1  0  0  0
  4  5  1  0  0  0
  5  6  1  0  0  0
  5 12  1  0  0  0
  6  7  1  0  0  0
  7  8  2  0  0  0
  7 11  1  0  0  0
  8  9  1  0  0  0
  9 10  1  0  0  0
 10 11  2  0  0  0
 12 13  2  0  0  0
 12 14  1  0  0  0
 14 15  1  0  0  0
 14 21  1  0  0  0
 15 16  1  0  0  0
 15 20  1  0  0  0
 16 17  1  0  0  0
 17 18  1  0  0  0
 18 19  1  0  0  0
 19 20  1  0  0  0
M  END
>  <CHROM.0>
-178.31913928,-71.96611990,-166.60742618,61.13691008,-30.53200859,-58.49610187
-38.04961163,-162.22100582

>  <CHROM.1>
177.06218521,53.59731581,-87.33190199,99.83497010,29.64816623,150.41680450
-21.49295946,20.09327756,-13.03594192,-1.50872915,0.54132594,0.60974514

>  <Name>
F5854-4892

>  <RI>
1.42728e+07

>  <Rbt.Current_Directory>
/home/adria/Escritorio/rDock_CMTR_LC/2pxcA_model/inputs_sah

>  <Rbt.Executable>
rbdock ($Id: //depot/dev/client3/rdock/2013.1/src/exe/rbdock.cxx#4 $)

>  <Rbt.Library>
libRbt.so (2013.1, Build901 2013/11/27)

>  <Rbt.Parameter_File>
/home/adria/Escritorio/rDock_2013.1_src/data/scripts/dock.prm

>  <Rbt.Receptor>
sah_rdock.prm

>  <SCORE>
-216.848

>  <SCORE.INTER>
-6.0201

>  <SCORE.INTER.CONST>
1

>  <SCORE.INTER.POLAR>
-0.50859

>  <SCORE.INTER.REPUL>
0

>  <SCORE.INTER.ROT>
6

>  <SCORE.INTER.VDW>
-15.6909

>  <SCORE.INTER.norm>
-0.301005

>  <SCORE.INTRA>
-203.752

>  <SCORE.INTRA.DIHEDRAL>
-4.81928

>  <SCORE.INTRA.DIHEDRAL.0>
8.91395

>  <SCORE.INTRA.POLAR>
0

>  <SCORE.INTRA.POLAR.0>
0

>  <SCORE.INTRA.REPUL>
0

>  <SCORE.INTRA.REPUL.0>
0

>  <SCORE.INTRA.VDW>
-201.343

>  <SCORE.INTRA.VDW.0>
199.807

>  <SCORE.INTRA.norm>
-10.1876

>  <SCORE.RESTR>
0

>  <SCORE.RESTR.CAVITY>
0

>  <SCORE.RESTR.norm>
0

>  <SCORE.SYSTEM>
-7.07541

>  <SCORE.SYSTEM.CONST>
0

>  <SCORE.SYSTEM.DIHEDRAL>
6.14544

>  <SCORE.SYSTEM.POLAR>
-3.91064

>  <SCORE.SYSTEM.REPUL>
0.0366372

>  <SCORE.SYSTEM.VDW>
2.96487

>  <SCORE.SYSTEM.norm>
-0.35377

>  <SCORE.heavy>
20

>  <SCORE.norm>
-10.8424

$$$$
F5854-4892
  rDOCK(R)          3D
libRbt.so/2013.1/901 2013/11/27
 21 22  0  0  0  0  0  0  0  0999 V2000
  -25.6109   19.9053  -14.9584 C   0  0  0  0  0  0
  -24.7294   19.6337  -13.8808 O   0  0  0  0  0  0
  -24.8549   20.5183  -12.7600 C   0  0  0  0  0  0
  -23.8128   20.3021  -11.5890 C   0  0  0  0  0  0
  -22.3351   20.3542  -11.9018 N   0  0  0  0  0  0
  -21.3884   21.7420  -12.4979 C   0  0  0  0  0  0
  -21.0422   23.6026  -11.7323 C   0  0  0  0  0  0
  -21.5071   25.0083  -11.9535 C   0  0  0  0  0  0
  -21.2050   26.1871  -10.7060 S   0  0  0  0  0  0
  -19.9673   25.2841  -10.0348 C   0  0  0  0  0  0
  -19.6695   24.3050  -10.9338 C   0  0  0  0  0  0
  -21.6267   19.3235  -11.3851 C   0  0  0  0  0  0
  -21.9168   18.5453  -10.4936 O   0  0  0  0  0  0
  -20.5180   19.2651  -12.0913 N   0  0  0  0  0  0
  -20.4348   20.1482  -13.2342 C   0  0  0  0  0  0
  -18.8603   21.0500  -14.1798 C   0  0  0  0  0  0
  -18.3344   20.1852  -15.9577 C   0  0  0  0  0  0
  -19.5921   19.0777  -16.8311 C   0  0  0  0  0  0
  -20.8726   18.2888  -15.8999 C   0  0  0  0  0  0
  -21.5102   18.9376  -14.3544 C   0  0  0  0  0  0
  -19.7131   18.7889  -11.7030 H   0  0  0  0  0  0
  1  2  1  0  0  0
  2  3  1  0  0  0
  3  4  1  0  0  0
  4  5  1  0  0  0
  5  6  1  0  0  0
  5 12  1  0  0  0
  6  7  1  0  0  0
  7  8  2  0  0  0
  7 11  1  0  0  0
  8  9  1  0  0  0
  9 10  1  0  0  0
 10 11  2  0  0  0
 12 13  2  0  0  0
 12 14  1  0  0  0
 14 15  1  0  0  0
 14 21  1  0  0  0
 15 16  1  0  0  0
 15 20  1  0  0  0
 16 17  1  0  0  0
 17 18  1  0  0  0
 18 19  1  0  0  0
 19 20  1  0  0  0
M  END
>  <CHROM.0>
-177.26914687,-71.97053276,-43.84151743,65.03988456,-30.47679048,-179.22742692
-36.09769205,-161.33015879

>  <CHROM.1>
-175.74513928,56.10576866,63.90288166,59.52432494,-103.13108784,150.89052620
-21.52150831,21.31494762,-12.76728599,1.72324544,-0.36867406,-2.54879569

>  <Name>
F5854-4892

>  <RI>
1.42728e+07

>  <Rbt.Current_Directory>
/home/adria/Escritorio/rDock_CMTR_LC/2pxcA_model/inputs_sah

>  <Rbt.Executable>
rbdock ($Id: //depot/dev/client3/rdock/2013.1/src/exe/rbdock.cxx#4 $)

>  <Rbt.Library>
libRbt.so (2013.1, Build901 2013/11/27)

>  <Rbt.Parameter_File>
/home/adria/Escritorio/rDock_2013.1_src/data/scripts/dock.prm

>  <Rbt.Receptor>
sah_rdock.prm

>  <SCORE>
-219.702

>  <SCORE.INTER>
-8.96064

>  <SCORE.INTER.CONST>
1

>  <SCORE.INTER.POLAR>
-0.445105

>  <SCORE.INTER.REPUL>
0

>  <SCORE.INTER.ROT>
6

>  <SCORE.INTER.VDW>
-18.8473

>  <SCORE.INTER.norm>
-0.448032

>  <SCORE.INTRA>
-203.607

>  <SCORE.INTRA.DIHEDRAL>
-4.59694

>  <SCORE.INTRA.DIHEDRAL.0>
8.91395

>  <SCORE.INTRA.POLAR>
0

>  <SCORE.INTRA.POLAR.0>
0

>  <SCORE.INTRA.REPUL>
0

>  <SCORE.INTRA.REPUL.0>
0

>  <SCORE.INTRA.VDW>
-201.308

>  <SCORE.INTRA.VDW.0>
199.807

>  <SCORE.INTRA.norm>
-10.1803

>  <SCORE.RESTR>
0

>  <SCORE.RESTR.CAVITY>
0

>  <SCORE.RESTR.norm>
0

>  <SCORE.SYSTEM>
-7.13488

>  <SCORE.SYSTEM.CONST>
0

>  <SCORE.SYSTEM.DIHEDRAL>
6.69099

>  <SCORE.SYSTEM.POLAR>
-3.99882

>  <SCORE.SYSTEM.REPUL>
0.0366455

>  <SCORE.SYSTEM.VDW>
2.93237

>  <SCORE.SYSTEM.norm>
-0.356744

>  <SCORE.heavy>
20

>  <SCORE.norm>
-10.9851

$$$$
F5854-4892
  rDOCK(R)          3D
libRbt.so/2013.1/901 2013/11/27
 21 22  0  0  0  0  0  0  0  0999 V2000
  -24.8277   19.4460  -17.3811 C   0  0  0  0  0  0
  -24.2652   19.5699  -16.0849 O   0  0  0  0  0  0
  -24.9011   18.7795  -15.0723 C   0  0  0  0  0  0
  -24.2951   18.9047  -13.6159 C   0  0  0  0  0  0
  -22.8242   18.6284  -13.4061 N   0  0  0  0  0  0
  -21.6345   19.6269  -12.5313 C   0  0  0  0  0  0
  -21.4606   21.6435  -12.2647 C   0  0  0  0  0  0
  -20.7813   22.5943  -11.3290 C   0  0  0  0  0  0
  -20.6064   24.2573  -11.8200 S   0  0  0  0  0  0
  -21.8462   24.1462  -12.9372 C   0  0  0  0  0  0
  -22.4937   22.9748  -12.6833 C   0  0  0  0  0  0
  -22.4638   17.3481  -13.6553 C   0  0  0  0  0  0
  -23.1500   16.3442  -13.7323 O   0  0  0  0  0  0
  -21.1657   17.3794  -13.8680 N   0  0  0  0  0  0
  -20.5536   18.6890  -13.9255 C   0  0  0  0  0  0
  -18.6754   19.3643  -13.4752 C   0  0  0  0  0  0
  -17.5008   19.7455  -15.1062 C   0  0  0  0  0  0
  -18.3359   19.9978  -16.7825 C   0  0  0  0  0  0
  -19.9354   19.3060  -17.0865 C   0  0  0  0  0  0
  -21.1259   18.9676  -15.7887 C   0  0  0  0  0  0
  -20.6312   16.5251  -13.7687 H   0  0  0  0  0  0
  1  2  1  0  0  0
  2  3  1  0  0  0
  3  4  1  0  0  0
  4  5  1  0  0  0
  5  6  1  0  0  0
  5 12  1  0  0  0
  6  7  1  0  0  0
  7  8  2  0  0  0
  7 11  1  0  0  0
  8  9  1  0  0  0
  9 10  1  0  0  0
 10 11  2  0  0  0
 12 13  2  0  0  0
 12 14  1  0  0  0
 14 15  1  0  0  0
 14 21  1  0  0  0
 15 16  1  0  0  0
 15 20  1  0  0  0
 16 17  1  0  0  0
 17 18  1  0  0  0
 18 19  1  0  0  0
 19 20  1  0  0  0
M  END
>  <CHROM.0>
-60.84391413,67.00362137,-9.37350664,66.19364599,32.65567689,-61.71395149
-157.16030453,-160.63605692

>  <CHROM.1>
-179.77165847,-55.51795440,131.06118553,-31.87641712,160.13563547,151.07286784
-21.61265202,20.08844771,-14.04228769,1.93435165,-0.12200478,-2.57842907

>  <Name>
F5854-4892

>  <RI>
1.42728e+07

>  <Rbt.Current_Directory>
/home/adria/Escritorio/rDock_CMTR_LC/2pxcA_model/inputs_sah

>  <Rbt.Executable>
rbdock ($Id: //depot/dev/client3/rdock/2013.1/src/exe/rbdock.cxx#4 $)

>  <Rbt.Library>
libRbt.so (2013.1, Build901 2013/11/27)

>  <Rbt.Parameter_File>
/home/adria/Escritorio/rDock_2013.1_src/data/scripts/dock.prm

>  <Rbt.Receptor>
sah_rdock.prm

>  <SCORE>
-203.267

>  <SCORE.INTER>
-4.34009

>  <SCORE.INTER.CONST>
1

>  <SCORE.INTER.POLAR>
0

>  <SCORE.INTER.REPUL>
0.00623327

>  <SCORE.INTER.ROT>
6

>  <SCORE.INTER.VDW>
-15.7713

>  <SCORE.INTER.norm>
-0.217005

>  <SCORE.INTRA>
-203.668

>  <SCORE.INTRA.DIHEDRAL>
-4.35554

>  <SCORE.INTRA.DIHEDRAL.0>
8.91395

>  <SCORE.INTRA.POLAR>
0

>  <SCORE.INTRA.POLAR.0>
0

>  <SCORE.INTRA.REPUL>
0

>  <SCORE.INTRA.REPUL.0>
0

>  <SCORE.INTRA.VDW>
-201.49

>  <SCORE.INTRA.VDW.0>
199.807

>  <SCORE.INTRA.norm>
-10.1834

>  <SCORE.RESTR>
0

>  <SCORE.RESTR.CAVITY>
0

>  <SCORE.RESTR.norm>
0

>  <SCORE.SYSTEM>
4.74085

>  <SCORE.SYSTEM.CONST>
0

>  <SCORE.SYSTEM.DIHEDRAL>
8.59495

>  <SCORE.SYSTEM.POLAR>
-4.05533

>  <SCORE.SYSTEM.VDW>
14.2315

>  <SCORE.SYSTEM.norm>
0.237043

>  <SCORE.heavy>
20

>  <SCORE.norm>
-10.1633

$$$$
F5854-4892
  rDOCK(R)          3D
libRbt.so/2013.1/901 2013/11/27
 21 22  0  0  0  0  0  0  0  0999 V2000
  -23.3529   20.3975   -9.8522 C   0  0  0  0  0  0
  -24.6264   19.8168  -10.0828 O   0  0  0  0  0  0
  -24.9003   19.4846  -11.4499 C   0  0  0  0  0  0
  -25.2659   20.6991  -12.3962 C   0  0  0  0  0  0
  -24.2149   21.7451  -12.6882 N   0  0  0  0  0  0
  -22.4597   21.5092  -12.8918 C   0  0  0  0  0  0
  -21.3258   19.8488  -13.2452 C   0  0  0  0  0  0
  -21.5302   18.3906  -13.5154 C   0  0  0  0  0  0
  -20.2061   17.4789  -14.1884 S   0  0  0  0  0  0
  -19.0677   18.5909  -13.6732 C   0  0  0  0  0  0
  -19.7032   19.4204  -12.7994 C   0  0  0  0  0  0
  -24.7169   22.9203  -13.1331 C   0  0  0  0  0  0
  -25.8119   23.1741  -13.6032 O   0  0  0  0  0  0
  -23.7789   23.8152  -12.9080 N   0  0  0  0  0  0
  -22.6222   23.3635  -12.1656 C   0  0  0  0  0  0
  -20.6380   23.8553  -12.2529 C   0  0  0  0  0  0
  -20.0015   25.0723  -10.7367 C   0  0  0  0  0  0
  -21.0434   25.1767   -9.1635 C   0  0  0  0  0  0
  -22.7702   24.7969   -9.2198 C   0  0  0  0  0  0
  -23.4984   23.6963  -10.4340 C   0  0  0  0  0  0
  -23.7962   24.6854  -13.4255 H   0  0  0  0  0  0
  1  2  1  0  0  0
  2  3  1  0  0  0
  3  4  1  0  0  0
  4  5  1  0  0  0
  5  6  1  0  0  0
  5 12  1  0  0  0
  6  7  1  0  0  0
  7  8  2  0  0  0
  7 11  1  0  0  0
  8  9  1  0  0  0
  9 10  1  0  0  0
 10 11  2  0  0  0
 12 13  2  0  0  0
 12 14  1  0  0  0
 14 15  1  0  0  0
 14 21  1  0  0  0
 15 16  1  0  0  0
 15 20  1  0  0  0
 16 17  1  0  0  0
 17 18  1  0  0  0
 18 19  1  0  0  0
 19 20  1  0  0  0
M  END
>  <CHROM.0>
-175.97625831,66.66171861,110.77791733,63.81755840,168.79715558,-177.50144668
-37.32164628,-162.83619783

>  <CHROM.1>
-76.27314533,65.88924650,35.65503004,16.56350709,4.27427642,145.99812406
-22.49334517,21.43890691,-12.11707551,1.92940161,0.03146430,0.41946504

>  <Name>
F5854-4892

>  <RI>
1.42728e+07

>  <Rbt.Current_Directory>
/home/adria/Escritorio/rDock_CMTR_LC/2pxcA_model/inputs_sah

>  <Rbt.Executable>
rbdock ($Id: //depot/dev/client3/rdock/2013.1/src/exe/rbdock.cxx#4 $)

>  <Rbt.Library>
libRbt.so (2013.1, Build901 2013/11/27)

>  <Rbt.Parameter_File>
/home/adria/Escritorio/rDock_2013.1_src/data/scripts/dock.prm

>  <Rbt.Receptor>
sah_rdock.prm

>  <SCORE>
-209.929

>  <SCORE.INTER>
-6.01185

>  <SCORE.INTER.CONST>
1

>  <SCORE.INTER.POLAR>
-0.344156

>  <SCORE.INTER.REPUL>
0

>  <SCORE.INTER.ROT>
6

>  <SCORE.INTER.VDW>
-16.2417

>  <SCORE.INTER.norm>
-0.300592

>  <SCORE.INTRA>
-202.282

>  <SCORE.INTRA.DIHEDRAL>
-2.88967

>  <SCORE.INTRA.DIHEDRAL.0>
8.91395

>  <SCORE.INTRA.POLAR>
0

>  <SCORE.INTRA.POLAR.0>
0

>  <SCORE.INTRA.REPUL>
0

>  <SCORE.INTRA.REPUL.0>
0

>  <SCORE.INTRA.VDW>
-200.837

>  <SCORE.INTRA.VDW.0>
199.807

>  <SCORE.INTRA.norm>
-10.1141

>  <SCORE.RESTR>
0

>  <SCORE.RESTR.CAVITY>
0

>  <SCORE.RESTR.norm>
0

>  <SCORE.SYSTEM>
-1.63507

>  <SCORE.SYSTEM.CONST>
0

>  <SCORE.SYSTEM.DIHEDRAL>
5.92446

>  <SCORE.SYSTEM.POLAR>
-4.16503

>  <SCORE.SYSTEM.VDW>
9.5638

>  <SCORE.SYSTEM.norm>
-0.0817537

>  <SCORE.heavy>
20

>  <SCORE.norm>
-10.4964

$$$$
F5854-4892
  rDOCK(R)          3D
libRbt.so/2013.1/901 2013/11/27
 21 22  0  0  0  0  0  0  0  0999 V2000
  -23.8537   17.7492  -11.4262 C   0  0  0  0  0  0
  -24.1504   18.3428  -12.6798 O   0  0  0  0  0  0
  -25.2712   19.2362  -12.6750 C   0  0  0  0  0  0
  -25.0666   20.5973  -11.8944 C   0  0  0  0  0  0
  -23.9160   21.4987  -12.2787 N   0  0  0  0  0  0
  -22.1699   21.1725  -12.1292 C   0  0  0  0  0  0
  -20.9263   19.8679  -13.0882 C   0  0  0  0  0  0
  -19.5259   19.8395  -13.6163 C   0  0  0  0  0  0
  -18.8042   18.2929  -13.9687 S   0  0  0  0  0  0
  -20.2893   17.5331  -14.0917 C   0  0  0  0  0  0
  -21.2272   18.5198  -14.1404 C   0  0  0  0  0  0
  -24.2667   22.5225  -13.0911 C   0  0  0  0  0  0
  -25.2608   22.6675  -13.7805 O   0  0  0  0  0  0
  -23.3141   23.4209  -12.9617 N   0  0  0  0  0  0
  -22.3127   23.1574  -11.9514 C   0  0  0  0  0  0
  -20.3252   23.6233  -11.8122 C   0  0  0  0  0  0
  -19.9054   25.1602  -10.5288 C   0  0  0  0  0  0
  -21.1884   25.6212   -9.2203 C   0  0  0  0  0  0
  -22.8945   25.2319   -9.4791 C   0  0  0  0  0  0
  -23.4505   23.8778  -10.5151 C   0  0  0  0  0  0
  -23.1963   24.1193  -13.6855 H   0  0  0  0  0  0
  1  2  1  0  0  0
  2  3  1  0  0  0
  3  4  1  0  0  0
  4  5  1  0  0  0
  5  6  1  0  0  0
  5 12  1  0  0  0
  6  7  1  0  0  0
  7  8  2  0  0  0
  7 11  1  0  0  0
  8  9  1  0  0  0
  9 10  1  0  0  0
 10 11  2  0  0  0
 12 13  2  0  0  0
 12 14  1  0  0  0
 14 15  1  0  0  0
 14 21  1  0  0  0
 15 16  1  0  0  0
 15 20  1  0  0  0
 16 17  1  0  0  0
 17 18  1  0  0  0
 18 19  1  0  0  0
 19 20  1  0  0  0
M  END
>  <CHROM.0>
-60.90016634,-74.86294615,-166.65125882,62.77817070,168.27372290,61.11172626
-38.08825196,-162.00642318

>  <CHROM.1>
69.39117550,56.26342945,-65.24808769,68.56297006,141.94316954,148.89684459
-22.24362948,21.21763861,-12.35745371,1.34699728,-0.05979797,-2.73150241

>  <Name>
F5854-4892

>  <RI>
1.42728e+07

>  <Rbt.Current_Directory>
/home/adria/Escritorio/rDock_CMTR_LC/2pxcA_model/inputs_sah

>  <Rbt.Executable>
rbdock ($Id: //depot/dev/client3/rdock/2013.1/src/exe/rbdock.cxx#4 $)

>  <Rbt.Library>
libRbt.so (2013.1, Build901 2013/11/27)

>  <Rbt.Parameter_File>
/home/adria/Escritorio/rDock_2013.1_src/data/scripts/dock.prm

>  <Rbt.Receptor>
sah_rdock.prm

>  <SCORE>
-210.408

>  <SCORE.INTER>
-4.42986

>  <SCORE.INTER.CONST>
1

>  <SCORE.INTER.POLAR>
0

>  <SCORE.INTER.REPUL>
0

>  <SCORE.INTER.ROT>
6

>  <SCORE.INTER.VDW>
-15.8299

>  <SCORE.INTER.norm>
-0.221493

>  <SCORE.INTRA>
-203.366

>  <SCORE.INTRA.DIHEDRAL>
-4.60948

>  <SCORE.INTRA.DIHEDRAL.0>
8.91395

>  <SCORE.INTRA.POLAR>
0

>  <SCORE.INTRA.POLAR.0>
0

>  <SCORE.INTRA.REPUL>
0

>  <SCORE.INTRA.REPUL.0>
0

>  <SCORE.INTRA.VDW>
-201.061

>  <SCORE.INTRA.VDW.0>
199.807

>  <SCORE.INTRA.norm>
-10.1683

>  <SCORE.RESTR>
0

>  <SCORE.RESTR.CAVITY>
0

>  <SCORE.RESTR.norm>
0

>  <SCORE.SYSTEM>
-2.61227

>  <SCORE.SYSTEM.CONST>
0

>  <SCORE.SYSTEM.DIHEDRAL>
3.67944

>  <SCORE.SYSTEM.POLAR>
-3.90138

>  <SCORE.SYSTEM.REPUL>
0.0416913

>  <SCORE.SYSTEM.VDW>
8.60423

>  <SCORE.SYSTEM.norm>
-0.130614

>  <SCORE.heavy>
20

>  <SCORE.norm>
-10.5204

$$$$
F5854-4892
  rDOCK(R)          3D
libRbt.so/2013.1/901 2013/11/27
 21 22  0  0  0  0  0  0  0  0999 V2000
  -23.7110   22.9771   -9.2201 C   0  0  0  0  0  0
  -23.3445   22.0842  -10.2596 O   0  0  0  0  0  0
  -23.3123   20.7012   -9.8846 C   0  0  0  0  0  0
  -22.9381   19.6817  -11.0355 C   0  0  0  0  0  0
  -21.5920   19.7999  -11.7124 N   0  0  0  0  0  0
  -20.7794   21.2789  -12.2870 C   0  0  0  0  0  0
  -21.0888   23.2590  -11.8982 C   0  0  0  0  0  0
  -21.6956   24.4504  -12.5716 C   0  0  0  0  0  0
  -22.0929   25.8399  -11.5978 S   0  0  0  0  0  0
  -21.0380   25.3930  -10.3790 C   0  0  0  0  0  0
  -20.2568   24.3992  -10.8869 C   0  0  0  0  0  0
  -20.8145   18.6995  -11.5870 C   0  0  0  0  0  0
  -20.8929   17.7732  -10.7993 O   0  0  0  0  0  0
  -19.9312   18.7760  -12.5592 N   0  0  0  0  0  0
  -20.1139   19.8484  -13.5129 C   0  0  0  0  0  0
  -18.7993   21.0614  -14.5064 C   0  0  0  0  0  0
  -18.5278   20.5796  -16.4760 C   0  0  0  0  0  0
  -19.8324   19.5153  -17.3343 C   0  0  0  0  0  0
  -20.8693   18.4463  -16.3796 C   0  0  0  0  0  0
  -21.2748   18.7454  -14.6585 C   0  0  0  0  0  0
  -19.0723   18.2447  -12.4851 H   0  0  0  0  0  0
  1  2  1  0  0  0
  2  3  1  0  0  0
  3  4  1  0  0  0
  4  5  1  0  0  0
  5  6  1  0  0  0
  5 12  1  0  0  0
  6  7  1  0  0  0
  7  8  2  0  0  0
  7 11  1  0  0  0
  8  9  1  0  0  0
  9 10  1  0  0  0
 10 11  2  0  0  0
 12 13  2  0  0  0
 12 14  1  0  0  0
 14 15  1  0  0  0
 14 21  1  0  0  0
 15 16  1  0  0  0
 15 20  1  0  0  0
 16 17  1  0  0  0
 17 18  1  0  0  0
 18 19  1  0  0  0
 19 20  1  0  0  0
M  END
>  <CHROM.0>
-61.30543512,-166.48319040,-166.13757678,63.12296861,-30.38618942,-57.76403894
65.21589938,-161.47966358

>  <CHROM.1>
178.66250816,60.68962755,-44.51062720,16.13682974,-103.72781666,142.57474855
-21.22526199,21.40032650,-12.40555000,2.24904192,1.07188189,0.05252285

>  <Name>
F5854-4892

>  <RI>
1.42728e+07

>  <Rbt.Current_Directory>
/home/adria/Escritorio/rDock_CMTR_LC/2pxcA_model/inputs_sah

>  <Rbt.Executable>
rbdock ($Id: //depot/dev/client3/rdock/2013.1/src/exe/rbdock.cxx#4 $)

>  <Rbt.Library>
libRbt.so (2013.1, Build901 2013/11/27)

>  <Rbt.Parameter_File>
/home/adria/Escritorio/rDock_2013.1_src/data/scripts/dock.prm

>  <Rbt.Receptor>
sah_rdock.prm

>  <SCORE>
-219.577

>  <SCORE.INTER>
-10.5388

>  <SCORE.INTER.CONST>
1

>  <SCORE.INTER.POLAR>
-0.735797

>  <SCORE.INTER.REPUL>
0.0295114

>  <SCORE.INTER.ROT>
6

>  <SCORE.INTER.VDW>
-19.5846

>  <SCORE.INTER.norm>
-0.526938

>  <SCORE.INTRA>
-203.678

>  <SCORE.INTRA.DIHEDRAL>
-3.74567

>  <SCORE.INTRA.DIHEDRAL.0>
8.91395

>  <SCORE.INTRA.POLAR>
0

>  <SCORE.INTRA.POLAR.0>
0

>  <SCORE.INTRA.REPUL>
0

>  <SCORE.INTRA.REPUL.0>
0

>  <SCORE.INTRA.VDW>
-201.806

>  <SCORE.INTRA.VDW.0>
199.807

>  <SCORE.INTRA.norm>
-10.1839

>  <SCORE.RESTR>
0

>  <SCORE.RESTR.CAVITY>
0

>  <SCORE.RESTR.norm>
0

>  <SCORE.SYSTEM>
-5.3602

>  <SCORE.SYSTEM.CONST>
0

>  <SCORE.SYSTEM.DIHEDRAL>
5.46604

>  <SCORE.SYSTEM.POLAR>
-3.15896

>  <SCORE.SYSTEM.VDW>
2.64724

>  <SCORE.SYSTEM.norm>
-0.26801

>  <SCORE.heavy>
20

>  <SCORE.norm>
-10.9789

$$$$
F5854-4892
  rDOCK(R)          3D
libRbt.so/2013.1/901 2013/11/27
 21 22  0  0  0  0  0  0  0  0999 V2000
  -21.4634   23.3493  -12.8680 C   0  0  0  0  0  0
  -20.2920   22.5612  -13.0046 O   0  0  0  0  0  0
  -19.9840   21.7357  -11.8741 C   0  0  0  0  0  0
  -20.9020   20.4619  -11.6780 C   0  0  0  0  0  0
  -20.9508   19.4167  -12.7685 N   0  0  0  0  0  0
  -20.4710   19.5906  -14.4765 C   0  0  0  0  0  0
  -18.6494   19.6294  -15.3975 C   0  0  0  0  0  0
  -17.7370   20.6325  -16.0317 C   0  0  0  0  0  0
  -16.0697   20.1928  -16.2847 S   0  0  0  0  0  0
  -16.4022   18.5553  -16.2104 C   0  0  0  0  0  0
  -17.7569   18.4306  -16.2815 C   0  0  0  0  0  0
  -21.0904   18.1507  -12.3115 C   0  0  0  0  0  0
  -20.8940   17.6959  -11.1984 O   0  0  0  0  0  0
  -21.5570   17.4560  -13.3268 N   0  0  0  0  0  0
  -21.9108   18.2059  -14.5124 C   0  0  0  0  0  0
  -21.7869   17.7832  -16.5105 C   0  0  0  0  0  0
  -23.5734   17.3062  -17.3858 C   0  0  0  0  0  0
  -25.1712   17.8162  -16.5152 C   0  0  0  0  0  0
  -25.1782   18.0864  -14.7670 C   0  0  0  0  0  0
  -23.7237   18.5767  -13.8395 C   0  0  0  0  0  0
  -21.4503   16.4490  -13.3231 H   0  0  0  0  0  0
  1  2  1  0  0  0
  2  3  1  0  0  0
  3  4  1  0  0  0
  4  5  1  0  0  0
  5  6  1  0  0  0
  5 12  1  0  0  0
  6  7  1  0  0  0
  7  8  2  0  0  0
  7 11  1  0  0  0
  8  9  1  0  0  0
  9 10  1  0  0  0
 10 11  2  0  0  0
 12 13  2  0  0  0
 12 14  1  0  0  0
 14 15  1  0  0  0
 14 21  1  0  0  0
 15 16  1  0  0  0
 15 20  1  0  0  0
 16 17  1  0  0  0
 17 18  1  0  0  0
 18 19  1  0  0  0
 19 20  1  0  0  0
M  END
>  <CHROM.0>
178.02385277,-72.84189023,-6.92906700,63.62475463,-30.87022677,-57.67611949
-50.56233044,-162.11259756

>  <CHROM.1>
73.78080100,60.25505522,-18.74036626,76.97305283,-105.52149618,145.02190071
-20.53785211,19.36243277,-14.42847850,0.03904527,0.32656153,0.95577846

>  <Name>
F5854-4892

>  <RI>
1.42728e+07

>  <Rbt.Current_Directory>
/home/adria/Escritorio/rDock_CMTR_LC/2pxcA_model/inputs_sah

>  <Rbt.Executable>
rbdock ($Id: //depot/dev/client3/rdock/2013.1/src/exe/rbdock.cxx#4 $)

>  <Rbt.Library>
libRbt.so (2013.1, Build901 2013/11/27)

>  <Rbt.Parameter_File>
/home/adria/Escritorio/rDock_2013.1_src/data/scripts/dock.prm

>  <Rbt.Receptor>
sah_rdock.prm

>  <SCORE>
-216.285

>  <SCORE.INTER>
-7.57505

>  <SCORE.INTER.CONST>
1

>  <SCORE.INTER.POLAR>
-0.717713

>  <SCORE.INTER.REPUL>
0

>  <SCORE.INTER.ROT>
6

>  <SCORE.INTER.VDW>
-16.5348

>  <SCORE.INTER.norm>
-0.378752

>  <SCORE.INTRA>
-202.364

>  <SCORE.INTRA.DIHEDRAL>
-3.51266

>  <SCORE.INTRA.DIHEDRAL.0>
8.91395

>  <SCORE.INTRA.POLAR>
0

>  <SCORE.INTRA.POLAR.0>
0

>  <SCORE.INTRA.REPUL>
0

>  <SCORE.INTRA.REPUL.0>
0

>  <SCORE.INTRA.VDW>
-200.608

>  <SCORE.INTRA.VDW.0>
199.807

>  <SCORE.INTRA.norm>
-10.1182

>  <SCORE.RESTR>
0

>  <SCORE.RESTR.CAVITY>
0

>  <SCORE.RESTR.norm>
0

>  <SCORE.SYSTEM>
-6.34511

>  <SCORE.SYSTEM.CONST>
0

>  <SCORE.SYSTEM.DIHEDRAL>
8.46841

>  <SCORE.SYSTEM.POLAR>
-4.17707

>  <SCORE.SYSTEM.REPUL>
0.038252

>  <SCORE.SYSTEM.VDW>
3.43146

>  <SCORE.SYSTEM.norm>
-0.317255

>  <SCORE.heavy>
20

>  <SCORE.norm>
-10.8142

$$$$
F5854-4892
  rDOCK(R)          3D
libRbt.so/2013.1/901 2013/11/27
 21 22  0  0  0  0  0  0  0  0999 V2000
  -19.5414   18.0591  -14.8872 C   0  0  0  0  0  0
  -20.5581   18.1140  -13.8997 O   0  0  0  0  0  0
  -20.1066   18.4714  -12.5871 C   0  0  0  0  0  0
  -21.2141   18.4910  -11.4569 C   0  0  0  0  0  0
  -22.3687   19.4588  -11.5767 N   0  0  0  0  0  0
  -23.3118   19.8661  -13.0335 C   0  0  0  0  0  0
  -23.3567   19.0679  -14.9119 C   0  0  0  0  0  0
  -22.6705   19.2636  -16.2279 C   0  0  0  0  0  0
  -22.7835   17.9957  -17.4182 S   0  0  0  0  0  0
  -24.1530   17.3418  -16.7149 C   0  0  0  0  0  0
  -24.6012   18.2584  -15.8124 C   0  0  0  0  0  0
  -22.9165   19.8113  -10.3906 C   0  0  0  0  0  0
  -22.8326   19.2732   -9.3007 O   0  0  0  0  0  0
  -23.5550   20.9395  -10.6155 N   0  0  0  0  0  0
  -23.3822   21.5276  -11.9260 C   0  0  0  0  0  0
  -24.5720   22.7322  -13.0747 C   0  0  0  0  0  0
  -23.9955   24.6946  -13.1193 C   0  0  0  0  0  0
  -22.2231   25.1274  -12.6268 C   0  0  0  0  0  0
  -21.3102   24.0441  -11.5674 C   0  0  0  0  0  0
  -21.6278   22.2832  -11.4483 C   0  0  0  0  0  0
  -24.2836   21.2276   -9.9738 H   0  0  0  0  0  0
  1  2  1  0  0  0
  2  3  1  0  0  0
  3  4  1  0  0  0
  4  5  1  0  0  0
  5  6  1  0  0  0
  5 12  1  0  0  0
  6  7  1  0  0  0
  7  8  2  0  0  0
  7 11  1  0  0  0
  8  9  1  0  0  0
  9 10  1  0  0  0
 10 11  2  0  0  0
 12 13  2  0  0  0
 12 14  1  0  0  0
 14 15  1  0  0  0
 14 21  1  0  0  0
 15 16  1  0  0  0
 15 20  1  0  0  0
 16 17  1  0  0  0
 17 18  1  0  0  0
 18 19  1  0  0  0
 19 20  1  0  0  0
M  END
>  <CHROM.0>
-60.92055139,66.70781482,-9.96454206,65.49110706,-30.89511851,61.69334773
-157.21951681,-161.06662493

>  <CHROM.1>
-177.97753369,-62.27855219,42.29921537,8.66523758,-90.19553742,152.01153273
-22.52860044,20.10625003,-13.34456970,-1.51862007,-1.12127880,0.84898840

>  <Name>
F5854-4892

>  <RI>
1.42728e+07

>  <Rbt.Current_Directory>
/home/adria/Escritorio/rDock_CMTR_LC/2pxcA_model/inputs_sah

>  <Rbt.Executable>
rbdock ($Id: //depot/dev/client3/rdock/2013.1/src/exe/rbdock.cxx#4 $)

>  <Rbt.Library>
libRbt.so (2013.1, Build901 2013/11/27)

>  <Rbt.Parameter_File>
/home/adria/Escritorio/rDock_2013.1_src/data/scripts/dock.prm

>  <Rbt.Receptor>
sah_rdock.prm

>  <SCORE>
-218.142

>  <SCORE.INTER>
-7.00026

>  <SCORE.INTER.CONST>
1

>  <SCORE.INTER.POLAR>
-0.838401

>  <SCORE.INTER.REPUL>
0

>  <SCORE.INTER.ROT>
6

>  <SCORE.INTER.VDW>
-15.5497

>  <SCORE.INTER.norm>
-0.350013

>  <SCORE.INTRA>
-203.976

>  <SCORE.INTRA.DIHEDRAL>
-4.32149

>  <SCORE.INTRA.DIHEDRAL.0>
8.91395

>  <SCORE.INTRA.POLAR>
0

>  <SCORE.INTRA.POLAR.0>
0

>  <SCORE.INTRA.REPUL>
0

>  <SCORE.INTRA.REPUL.0>
0

>  <SCORE.INTRA.VDW>
-201.815

>  <SCORE.INTRA.VDW.0>
199.807

>  <SCORE.INTRA.norm>
-10.1988

>  <SCORE.RESTR>
0

>  <SCORE.RESTR.CAVITY>
0

>  <SCORE.RESTR.norm>
0

>  <SCORE.SYSTEM>
-7.16605

>  <SCORE.SYSTEM.CONST>
0

>  <SCORE.SYSTEM.DIHEDRAL>
8.81186

>  <SCORE.SYSTEM.POLAR>
-4.32779

>  <SCORE.SYSTEM.VDW>
3.14253

>  <SCORE.SYSTEM.norm>
-0.358302

>  <SCORE.heavy>
20

>  <SCORE.norm>
-10.9071

$$$$
F5854-4892
  rDOCK(R)          3D
libRbt.so/2013.1/901 2013/11/27
 21 22  0  0  0  0  0  0  0  0999 V2000
  -26.2734   18.6183  -13.8942 C   0  0  0  0  0  0
  -25.4983   18.8954  -12.7390 O   0  0  0  0  0  0
  -25.9082   20.0531  -11.9999 C   0  0  0  0  0  0
  -25.0548   20.3874  -10.7100 C   0  0  0  0  0  0
  -23.5653   20.6016  -10.8500 N   0  0  0  0  0  0
  -22.7213   21.9831  -11.5963 C   0  0  0  0  0  0
  -22.2216   23.8336  -10.8936 C   0  0  0  0  0  0
  -22.3498   24.6223   -9.6277 C   0  0  0  0  0  0
  -21.3449   26.0315   -9.4239 S   0  0  0  0  0  0
  -21.0827   26.1866  -11.0685 C   0  0  0  0  0  0
  -21.9740   25.3601  -11.6833 C   0  0  0  0  0  0
  -22.8172   19.8002  -10.0568 C   0  0  0  0  0  0
  -23.1349   19.1632   -9.0679 O   0  0  0  0  0  0
  -21.6193   19.7803  -10.6008 N   0  0  0  0  0  0
  -21.4812   20.4424  -11.8797 C   0  0  0  0  0  0
  -19.9352   21.4532  -12.7597 C   0  0  0  0  0  0
  -18.9645   20.4045  -14.2237 C   0  0  0  0  0  0
  -19.8447   18.9315  -15.0153 C   0  0  0  0  0  0
  -21.1218   18.0851  -14.1311 C   0  0  0  0  0  0
  -22.1235   18.8617  -12.8624 C   0  0  0  0  0  0
  -20.8264   19.5086  -10.0323 H   0  0  0  0  0  0
  1  2  1  0  0  0
  2  3  1  0  0  0
  3  4  1  0  0  0
  4  5  1  0  0  0
  5  6  1  0  0  0
  5 12  1  0  0  0
  6  7  1  0  0  0
  7  8  2  0  0  0
  7 11  1  0  0  0
  8  9  1  0  0  0
  9 10  1  0  0  0
 10 11  2  0  0  0
 12 13  2  0  0  0
 12 14  1  0  0  0
 14 15  1  0  0  0
 14 21  1  0  0  0
 15 16  1  0  0  0
 15 20  1  0  0  0
 16 17  1  0  0  0
 17 18  1  0  0  0
 18 19  1  0  0  0
 19 20  1  0  0  0
M  END
>  <CHROM.0>
-177.93907474,-167.34862991,-167.36056485,63.12582007,167.94123888,-59.84684968
83.04780314,-162.05210808

>  <CHROM.1>
-179.73323251,57.07761173,71.26852541,82.40412399,0.85120990,147.71571701
-22.42577242,21.37817611,-11.62944093,1.84929993,-0.41907035,-2.63242568

>  <Name>
F5854-4892

>  <RI>
1.42728e+07

>  <Rbt.Current_Directory>
/home/adria/Escritorio/rDock_CMTR_LC/2pxcA_model/inputs_sah

>  <Rbt.Executable>
rbdock ($Id: //depot/dev/client3/rdock/2013.1/src/exe/rbdock.cxx#4 $)

>  <Rbt.Library>
libRbt.so (2013.1, Build901 2013/11/27)

>  <Rbt.Parameter_File>
/home/adria/Escritorio/rDock_2013.1_src/data/scripts/dock.prm

>  <Rbt.Receptor>
sah_rdock.prm

>  <SCORE>
-215.969

>  <SCORE.INTER>
-11.3192

>  <SCORE.INTER.CONST>
1

>  <SCORE.INTER.POLAR>
-1.81862

>  <SCORE.INTER.REPUL>
0.0562686

>  <SCORE.INTER.ROT>
6

>  <SCORE.INTER.VDW>
-16.8173

>  <SCORE.INTER.norm>
-0.565961

>  <SCORE.INTRA>
-203.757

>  <SCORE.INTRA.DIHEDRAL>
-4.52224

>  <SCORE.INTRA.DIHEDRAL.0>
8.91395

>  <SCORE.INTRA.POLAR>
0

>  <SCORE.INTRA.POLAR.0>
0

>  <SCORE.INTRA.REPUL>
0

>  <SCORE.INTRA.REPUL.0>
0

>  <SCORE.INTRA.VDW>
-201.496

>  <SCORE.INTRA.VDW.0>
199.807

>  <SCORE.INTRA.norm>
-10.1879

>  <SCORE.RESTR>
0

>  <SCORE.RESTR.CAVITY>
0

>  <SCORE.RESTR.norm>
0

>  <SCORE.SYSTEM>
-0.892884

>  <SCORE.SYSTEM.CONST>
0

>  <SCORE.SYSTEM.DIHEDRAL>
3.5197

>  <SCORE.SYSTEM.POLAR>
-3.52088

>  <SCORE.SYSTEM.VDW>
9.31825

>  <SCORE.SYSTEM.norm>
-0.0446442

>  <SCORE.heavy>
20

>  <SCORE.norm>
-10.7985

$$$$
F5854-4892
  rDOCK(R)          3D
libRbt.so/2013.1/901 2013/11/27
 21 22  0  0  0  0  0  0  0  0999 V2000
  -22.1736   26.8851   -8.8156 C   0  0  0  0  0  0
  -22.1164   26.2256  -10.0700 O   0  0  0  0  0  0
  -20.8459   25.6438  -10.3893 C   0  0  0  0  0  0
  -20.7994   24.7643  -11.7039 C   0  0  0  0  0  0
  -21.8099   23.6547  -11.8815 N   0  0  0  0  0  0
  -22.5481   22.6317  -10.6220 C   0  0  0  0  0  0
  -24.2065   22.8668   -9.4549 C   0  0  0  0  0  0
  -24.6036   22.6799   -8.0236 C   0  0  0  0  0  0
  -26.0571   23.4577   -7.4584 S   0  0  0  0  0  0
  -26.6788   23.6078   -9.0040 C   0  0  0  0  0  0
  -25.9056   22.8285   -9.8107 C   0  0  0  0  0  0
  -22.4249   23.6581  -13.0869 C   0  0  0  0  0  0
  -22.5150   24.5470  -13.9153 O   0  0  0  0  0  0
  -22.8958   22.4403  -13.2489 N   0  0  0  0  0  0
  -22.5242   21.4669  -12.2451 C   0  0  0  0  0  0
  -23.4464   19.7841  -11.5350 C   0  0  0  0  0  0
  -22.6507   18.0298  -12.2237 C   0  0  0  0  0  0
  -20.9007   18.0494  -12.9367 C   0  0  0  0  0  0
  -20.2293   19.5495  -13.5911 C   0  0  0  0  0  0
  -20.7541   21.1793  -13.0580 C   0  0  0  0  0  0
  -23.6434   22.2875  -13.9146 H   0  0  0  0  0  0
  1  2  1  0  0  0
  2  3  1  0  0  0
  3  4  1  0  0  0
  4  5  1  0  0  0
  5  6  1  0  0  0
  5 12  1  0  0  0
  6  7  1  0  0  0
  7  8  2  0  0  0
  7 11  1  0  0  0
  8  9  1  0  0  0
  9 10  1  0  0  0
 10 11  2  0  0  0
 12 13  2  0  0  0
 12 14  1  0  0  0
 14 15  1  0  0  0
 14 21  1  0  0  0
 15 16  1  0  0  0
 15 20  1  0  0  0
 16 17  1  0  0  0
 17 18  1  0  0  0
 18 19  1  0  0  0
 19 20  1  0  0  0
M  END
>  <CHROM.0>
-174.08186843,-172.78413745,-130.80436880,63.97769353,169.05507826,65.62997630
-156.57856077,-162.68622029

>  <CHROM.1>
173.35766402,-52.30778036,-32.77788913,87.69573902,-136.01402246,151.42230194
-22.96059749,22.78537633,-10.95855378,-2.24460540,-0.73877570,-2.82896338

>  <Name>
F5854-4892

>  <RI>
1.42728e+07

>  <Rbt.Current_Directory>
/home/adria/Escritorio/rDock_CMTR_LC/2pxcA_model/inputs_sah

>  <Rbt.Executable>
rbdock ($Id: //depot/dev/client3/rdock/2013.1/src/exe/rbdock.cxx#4 $)

>  <Rbt.Library>
libRbt.so (2013.1, Build901 2013/11/27)

>  <Rbt.Parameter_File>
/home/adria/Escritorio/rDock_2013.1_src/data/scripts/dock.prm

>  <Rbt.Receptor>
sah_rdock.prm

>  <SCORE>
-212.553

>  <SCORE.INTER>
-9.12049

>  <SCORE.INTER.CONST>
1

>  <SCORE.INTER.POLAR>
-1.76047

>  <SCORE.INTER.REPUL>
0

>  <SCORE.INTER.ROT>
6

>  <SCORE.INTER.VDW>
-14.5349

>  <SCORE.INTER.norm>
-0.456025

>  <SCORE.INTRA>
-202.882

>  <SCORE.INTRA.DIHEDRAL>
-3.09656

>  <SCORE.INTRA.DIHEDRAL.0>
8.91395

>  <SCORE.INTRA.POLAR>
0

>  <SCORE.INTRA.POLAR.0>
0

>  <SCORE.INTRA.REPUL>
0

>  <SCORE.INTRA.REPUL.0>
0

>  <SCORE.INTRA.VDW>
-201.334

>  <SCORE.INTRA.VDW.0>
199.807

>  <SCORE.INTRA.norm>
-10.1441

>  <SCORE.RESTR>
0

>  <SCORE.RESTR.CAVITY>
0

>  <SCORE.RESTR.norm>
0

>  <SCORE.SYSTEM>
-0.550032

>  <SCORE.SYSTEM.CONST>
0

>  <SCORE.SYSTEM.DIHEDRAL>
6.09324

>  <SCORE.SYSTEM.POLAR>
-4.13542

>  <SCORE.SYSTEM.VDW>
10.4638

>  <SCORE.SYSTEM.norm>
-0.0275016

>  <SCORE.heavy>
20

>  <SCORE.norm>
-10.6276

$$$$
F5854-4892
  rDOCK(R)          3D
libRbt.so/2013.1/901 2013/11/27
 21 22  0  0  0  0  0  0  0  0999 V2000
  -25.6375   22.5998   -8.0579 C   0  0  0  0  0  0
  -25.0198   21.5929   -8.8431 O   0  0  0  0  0  0
  -25.3998   21.5866  -10.2251 C   0  0  0  0  0  0
  -24.6704   20.5191  -11.1375 C   0  0  0  0  0  0
  -23.1609   20.5245  -11.2108 N   0  0  0  0  0  0
  -22.1080   21.6885  -12.0560 C   0  0  0  0  0  0
  -21.3864   23.5247  -11.5314 C   0  0  0  0  0  0
  -21.6506   24.9636  -11.8489 C   0  0  0  0  0  0
  -21.0197   26.1794  -10.7714 S   0  0  0  0  0  0
  -19.8652   25.1447  -10.1436 C   0  0  0  0  0  0
  -19.8346   24.0554  -10.9611 C   0  0  0  0  0  0
  -22.5623   19.7353  -10.2888 C   0  0  0  0  0  0
  -23.0061   19.2667   -9.2553 O   0  0  0  0  0  0
  -21.3545   19.4988  -10.7539 N   0  0  0  0  0  0
  -21.0723   19.9802  -12.0887 C   0  0  0  0  0  0
  -19.3917   20.7606  -12.9564 C   0  0  0  0  0  0
  -18.4030   19.4683  -14.1964 C   0  0  0  0  0  0
  -19.3367   17.9701  -14.8709 C   0  0  0  0  0  0
  -20.7373   17.3344  -13.9972 C   0  0  0  0  0  0
  -21.7641   18.3346  -12.9196 C   0  0  0  0  0  0
  -20.6312   19.1988  -10.1118 H   0  0  0  0  0  0
  1  2  1  0  0  0
  2  3  1  0  0  0
  3  4  1  0  0  0
  4  5  1  0  0  0
  5  6  1  0  0  0
  5 12  1  0  0  0
  6  7  1  0  0  0
  7  8  2  0  0  0
  7 11  1  0  0  0
  8  9  1  0  0  0
  9 10  1  0  0  0
 10 11  2  0  0  0
 12 13  2  0  0  0
 12 14  1  0  0  0
 14 15  1  0  0  0
 14 21  1  0  0  0
 15 16  1  0  0  0
 15 20  1  0  0  0
 16 17  1  0  0  0
 17 18  1  0  0  0
 18 19  1  0  0  0
 19 20  1  0  0  0
M  END
>  <CHROM.0>
179.60198755,-170.08558326,-46.43766962,62.91520241,166.95947171,176.63394894
-156.42432001,-165.44574371

>  <CHROM.1>
177.06284024,-56.82206206,-73.65574204,82.98924328,-104.14018361,144.15388336
-21.87022093,21.48760628,-11.32874245,1.94154999,0.59463390,0.29948640

>  <Name>
F5854-4892

>  <RI>
1.42728e+07

>  <Rbt.Current_Directory>
/home/adria/Escritorio/rDock_CMTR_LC/2pxcA_model/inputs_sah

>  <Rbt.Executable>
rbdock ($Id: //depot/dev/client3/rdock/2013.1/src/exe/rbdock.cxx#4 $)

>  <Rbt.Library>
libRbt.so (2013.1, Build901 2013/11/27)

>  <Rbt.Parameter_File>
/home/adria/Escritorio/rDock_2013.1_src/data/scripts/dock.prm

>  <Rbt.Receptor>
sah_rdock.prm

>  <SCORE>
-219.792

>  <SCORE.INTER>
-14.7621

>  <SCORE.INTER.CONST>
1

>  <SCORE.INTER.POLAR>
-1.60581

>  <SCORE.INTER.REPUL>
0.00308285

>  <SCORE.INTER.ROT>
6

>  <SCORE.INTER.VDW>
-20.7178

>  <SCORE.INTER.norm>
-0.738107

>  <SCORE.INTRA>
-203.902

>  <SCORE.INTRA.DIHEDRAL>
-5.26294

>  <SCORE.INTRA.DIHEDRAL.0>
8.91395

>  <SCORE.INTRA.POLAR>
0

>  <SCORE.INTRA.POLAR.0>
0

>  <SCORE.INTRA.REPUL>
0

>  <SCORE.INTRA.REPUL.0>
0

>  <SCORE.INTRA.VDW>
-201.271

>  <SCORE.INTRA.VDW.0>
199.807

>  <SCORE.INTRA.norm>
-10.1951

>  <SCORE.RESTR>
0

>  <SCORE.RESTR.CAVITY>
0

>  <SCORE.RESTR.norm>
0

>  <SCORE.SYSTEM>
-1.12794

>  <SCORE.SYSTEM.CONST>
0

>  <SCORE.SYSTEM.DIHEDRAL>
3.29586

>  <SCORE.SYSTEM.POLAR>
-3.64368

>  <SCORE.SYSTEM.VDW>
9.61264

>  <SCORE.SYSTEM.norm>
-0.0563972

>  <SCORE.heavy>
20

>  <SCORE.norm>
-10.9896

$$$$
F5854-4892
  rDOCK(R)          3D
libRbt.so/2013.1/901 2013/11/27
 21 22  0  0  0  0  0  0  0  0999 V2000
  -22.9172   20.2944   -7.8527 C   0  0  0  0  0  0
  -23.2490   19.4245   -8.9228 O   0  0  0  0  0  0
  -24.2799   19.9055   -9.7949 C   0  0  0  0  0  0
  -24.4960   19.0825  -11.1290 C   0  0  0  0  0  0
  -23.2906   18.6790  -11.9465 N   0  0  0  0  0  0
  -21.8468   19.6531  -12.3262 C   0  0  0  0  0  0
  -21.5033   21.6655  -12.3193 C   0  0  0  0  0  0
  -21.7339   22.8434  -13.2139 C   0  0  0  0  0  0
  -21.6341   24.4405  -12.5237 S   0  0  0  0  0  0
  -20.7221   23.9139  -11.2243 C   0  0  0  0  0  0
  -20.3139   22.6492  -11.5237 C   0  0  0  0  0  0
  -23.1823   17.3449  -12.1455 C   0  0  0  0  0  0
  -23.7089   16.4210  -11.5508 O   0  0  0  0  0  0
  -22.4012   17.2045  -13.1949 N   0  0  0  0  0  0
  -22.0272   18.4188  -13.8869 C   0  0  0  0  0  0
  -20.3570   18.9591  -14.9380 C   0  0  0  0  0  0
  -20.5993   18.9568  -16.9693 C   0  0  0  0  0  0
  -22.3528   19.0279  -17.6705 C   0  0  0  0  0  0
  -23.7181   18.4656  -16.6963 C   0  0  0  0  0  0
  -23.7131   18.4593  -14.9030 C   0  0  0  0  0  0
  -21.9330   16.3189  -13.3436 H   0  0  0  0  0  0
  1  2  1  0  0  0
  2  3  1  0  0  0
  3  4  1  0  0  0
  4  5  1  0  0  0
  5  6  1  0  0  0
  5 12  1  0  0  0
  6  7  1  0  0  0
  7  8  2  0  0  0
  7 11  1  0  0  0
  8  9  1  0  0  0
  9 10  1  0  0  0
 10 11  2  0  0  0
 12 13  2  0  0  0
 12 14  1  0  0  0
 14 15  1  0  0  0
 14 21  1  0  0  0
 15 16  1  0  0  0
 15 20  1  0  0  0
 16 17  1  0  0  0
 17 18  1  0  0  0
 18 19  1  0  0  0
 19 20  1  0  0  0
M  END
>  <CHROM.0>
-58.30391951,-77.69849654,15.33138799,-59.38853154,-29.89386750,-175.59099533
-36.40690075,-161.44720748

>  <CHROM.1>
169.80963787,-45.97699094,-41.71710621,-20.39944631,-81.60097683,149.03041095
-22.38720886,20.01306259,-12.68645524,1.39439214,1.15771433,1.00377680

>  <Name>
F5854-4892

>  <RI>
1.42728e+07

>  <Rbt.Current_Directory>
/home/adria/Escritorio/rDock_CMTR_LC/2pxcA_model/inputs_sah

>  <Rbt.Executable>
rbdock ($Id: //depot/dev/client3/rdock/2013.1/src/exe/rbdock.cxx#4 $)

>  <Rbt.Library>
libRbt.so (2013.1, Build901 2013/11/27)

>  <Rbt.Parameter_File>
/home/adria/Escritorio/rDock_2013.1_src/data/scripts/dock.prm

>  <Rbt.Receptor>
sah_rdock.prm

>  <SCORE>
-215.131

>  <SCORE.INTER>
-5.93562

>  <SCORE.INTER.CONST>
1

>  <SCORE.INTER.POLAR>
-0.808175

>  <SCORE.INTER.REPUL>
0

>  <SCORE.INTER.ROT>
6

>  <SCORE.INTER.VDW>
-14.5878

>  <SCORE.INTER.norm>
-0.296781

>  <SCORE.INTRA>
-202.763

>  <SCORE.INTRA.DIHEDRAL>
-2.77597

>  <SCORE.INTRA.DIHEDRAL.0>
8.91395

>  <SCORE.INTRA.POLAR>
0

>  <SCORE.INTRA.POLAR.0>
0

>  <SCORE.INTRA.REPUL>
0

>  <SCORE.INTRA.REPUL.0>
0

>  <SCORE.INTRA.VDW>
-201.375

>  <SCORE.INTRA.VDW.0>
199.807

>  <SCORE.INTRA.norm>
-10.1381

>  <SCORE.RESTR>
0

>  <SCORE.RESTR.CAVITY>
0

>  <SCORE.RESTR.norm>
0

>  <SCORE.SYSTEM>
-6.43244

>  <SCORE.SYSTEM.CONST>
0

>  <SCORE.SYSTEM.DIHEDRAL>
9.86618

>  <SCORE.SYSTEM.POLAR>
-4.4178

>  <SCORE.SYSTEM.REPUL>
0.0458249

>  <SCORE.SYSTEM.VDW>
3.42585

>  <SCORE.SYSTEM.norm>
-0.321622

>  <SCORE.heavy>
20

>  <SCORE.norm>
-10.7565

$$$$
F5854-4892
  rDOCK(R)          3D
libRbt.so/2013.1/901 2013/11/27
 21 22  0  0  0  0  0  0  0  0999 V2000
  -26.2151   18.4022  -13.5454 C   0  0  0  0  0  0
  -25.3042   19.3303  -12.9791 O   0  0  0  0  0  0
  -25.4889   19.5812  -11.5801 C   0  0  0  0  0  0
  -24.6013   20.7364  -10.9621 C   0  0  0  0  0  0
  -23.0971   20.6496  -11.0796 N   0  0  0  0  0  0
  -21.9959   21.7730  -11.9181 C   0  0  0  0  0  0
  -21.2367   23.5969  -11.4037 C   0  0  0  0  0  0
  -21.5026   25.0417  -11.6919 C   0  0  0  0  0  0
  -20.8149   26.2391  -10.6287 S   0  0  0  0  0  0
  -19.6426   25.1877  -10.0648 C   0  0  0  0  0  0
  -19.6570   24.1084  -10.8959 C   0  0  0  0  0  0
  -22.5250   19.7941  -10.2010 C   0  0  0  0  0  0
  -22.9692   19.3199   -9.1703 O   0  0  0  0  0  0
  -21.3478   19.4980  -10.7088 N   0  0  0  0  0  0
  -21.0722   20.0052  -12.0354 C   0  0  0  0  0  0
  -19.3622   20.6742  -12.9381 C   0  0  0  0  0  0
  -18.5317   19.3521  -14.2601 C   0  0  0  0  0  0
  -19.6133   17.9652  -14.9514 C   0  0  0  0  0  0
  -21.0319   17.4165  -14.0482 C   0  0  0  0  0  0
  -21.9310   18.4573  -12.8974 C   0  0  0  0  0  0
  -20.6277   19.1320  -10.0981 H   0  0  0  0  0  0
  1  2  1  0  0  0
  2  3  1  0  0  0
  3  4  1  0  0  0
  4  5  1  0  0  0
  5  6  1  0  0  0
  5 12  1  0  0  0
  6  7  1  0  0  0
  7  8  2  0  0  0
  7 11  1  0  0  0
  8  9  1  0  0  0
  9 10  1  0  0  0
 10 11  2  0  0  0
 12 13  2  0  0  0
 12 14  1  0  0  0
 14 15  1  0  0  0
 14 21  1  0  0  0
 15 16  1  0  0  0
 15 20  1  0  0  0
 16 17  1  0  0  0
 17 18  1  0  0  0
 18 19  1  0  0  0
 19 20  1  0  0  0
M  END
>  <CHROM.0>
39.57464583,66.93010136,74.57276806,151.26977200,-31.81630633,-56.64879536
81.66554492,-161.47158048

>  <CHROM.1>
-173.01082594,-57.15178362,118.03526822,78.55011427,-99.96658776,145.52095783
-21.89099302,21.10087044,-11.83422460,1.94808011,-0.31176134,-2.71756751

>  <Name>
F5854-4892

>  <RI>
1.42728e+07

>  <Rbt.Current_Directory>
/home/adria/Escritorio/rDock_CMTR_LC/2pxcA_model/inputs_sah

>  <Rbt.Executable>
rbdock ($Id: //depot/dev/client3/rdock/2013.1/src/exe/rbdock.cxx#4 $)

>  <Rbt.Library>
libRbt.so (2013.1, Build901 2013/11/27)

>  <Rbt.Parameter_File>
/home/adria/Escritorio/rDock_2013.1_src/data/scripts/dock.prm

>  <Rbt.Receptor>
sah_rdock.prm

>  <SCORE>
-216.252

>  <SCORE.INTER>
-13.0087

>  <SCORE.INTER.CONST>
1

>  <SCORE.INTER.POLAR>
-1.64409

>  <SCORE.INTER.REPUL>
0.0079356

>  <SCORE.INTER.ROT>
6

>  <SCORE.INTER.VDW>
-18.8584

>  <SCORE.INTER.norm>
-0.650434

>  <SCORE.INTRA>
-203.619

>  <SCORE.INTRA.DIHEDRAL>
-4.38184

>  <SCORE.INTRA.DIHEDRAL.0>
8.91395

>  <SCORE.INTRA.POLAR>
0

>  <SCORE.INTRA.POLAR.0>
0

>  <SCORE.INTRA.REPUL>
0

>  <SCORE.INTRA.REPUL.0>
0

>  <SCORE.INTRA.VDW>
-201.428

>  <SCORE.INTRA.VDW.0>
199.807

>  <SCORE.INTRA.norm>
-10.1809

>  <SCORE.RESTR>
0

>  <SCORE.RESTR.CAVITY>
0

>  <SCORE.RESTR.norm>
0

>  <SCORE.SYSTEM>
0.37538

>  <SCORE.SYSTEM.CONST>
0

>  <SCORE.SYSTEM.DIHEDRAL>
10.7742

>  <SCORE.SYSTEM.POLAR>
-3.61622

>  <SCORE.SYSTEM.REPUL>
0.124579

>  <SCORE.SYSTEM.VDW>
6.66056

>  <SCORE.SYSTEM.norm>
0.018769

>  <SCORE.heavy>
20

>  <SCORE.norm>
-10.8126

$$$$
F5854-4892
  rDOCK(R)          3D
libRbt.so/2013.1/901 2013/11/27
 21 22  0  0  0  0  0  0  0  0999 V2000
  -25.8689   23.2141  -11.6110 C   0  0  0  0  0  0
  -25.2843   22.7267  -10.4140 O   0  0  0  0  0  0
  -25.4975   21.3319  -10.1619 C   0  0  0  0  0  0
  -24.7377   20.3318  -11.1243 C   0  0  0  0  0  0
  -23.2308   20.4026  -11.2160 N   0  0  0  0  0  0
  -22.2405   21.5922  -12.1002 C   0  0  0  0  0  0
  -22.2356   23.6336  -12.1233 C   0  0  0  0  0  0
  -22.7961   24.7449  -12.9551 C   0  0  0  0  0  0
  -22.8513   26.3463  -12.2699 S   0  0  0  0  0  0
  -21.6700   25.9949  -11.1391 C   0  0  0  0  0  0
  -21.1126   24.8102  -11.5154 C   0  0  0  0  0  0
  -22.5874   19.6627  -10.2833 C   0  0  0  0  0  0
  -22.9983   19.1991   -9.2342 O   0  0  0  0  0  0
  -21.3754   19.4693  -10.7575 N   0  0  0  0  0  0
  -21.1298   19.9314  -12.1063 C   0  0  0  0  0  0
  -19.4885   20.7453  -13.0174 C   0  0  0  0  0  0
  -18.4798   19.4588  -14.2473 C   0  0  0  0  0  0
  -19.3768   17.9188  -14.8757 C   0  0  0  0  0  0
  -20.7427   17.2582  -13.9661 C   0  0  0  0  0  0
  -21.7829   18.2484  -12.8921 C   0  0  0  0  0  0
  -20.6323   19.2169  -10.1175 H   0  0  0  0  0  0
  1  2  1  0  0  0
  2  3  1  0  0  0
  3  4  1  0  0  0
  4  5  1  0  0  0
  5  6  1  0  0  0
  5 12  1  0  0  0
  6  7  1  0  0  0
  7  8  2  0  0  0
  7 11  1  0  0  0
  8  9  1  0  0  0
  9 10  1  0  0  0
 10 11  2  0  0  0
 12 13  2  0  0  0
 12 14  1  0  0  0
 14 15  1  0  0  0
 14 21  1  0  0  0
 15 16  1  0  0  0
 15 20  1  0  0  0
 16 17  1  0  0  0
 17 18  1  0  0  0
 18 19  1  0  0  0
 19 20  1  0  0  0
M  END
>  <CHROM.0>
-61.70313917,-70.52251561,77.49927763,65.15904288,-29.83730032,-177.01126725
-158.40426363,-46.42288646

>  <CHROM.1>
69.76039755,57.98276732,-77.22154401,51.19241070,-96.89768919,144.98919607
-22.34719670,21.61074353,-11.89750820,2.06135067,0.58030371,-0.07429802

>  <Name>
F5854-4892

>  <RI>
1.42728e+07

>  <Rbt.Current_Directory>
/home/adria/Escritorio/rDock_CMTR_LC/2pxcA_model/inputs_sah

>  <Rbt.Executable>
rbdock ($Id: //depot/dev/client3/rdock/2013.1/src/exe/rbdock.cxx#4 $)

>  <Rbt.Library>
libRbt.so (2013.1, Build901 2013/11/27)

>  <Rbt.Parameter_File>
/home/adria/Escritorio/rDock_2013.1_src/data/scripts/dock.prm

>  <Rbt.Receptor>
sah_rdock.prm

>  <SCORE>
-222.035

>  <SCORE.INTER>
-13.2707

>  <SCORE.INTER.CONST>
1

>  <SCORE.INTER.POLAR>
-1.60634

>  <SCORE.INTER.REPUL>
0

>  <SCORE.INTER.ROT>
6

>  <SCORE.INTER.VDW>
-19.2091

>  <SCORE.INTER.norm>
-0.663534

>  <SCORE.INTRA>
-203.06

>  <SCORE.INTRA.DIHEDRAL>
-4.34391

>  <SCORE.INTRA.DIHEDRAL.0>
8.91395

>  <SCORE.INTRA.POLAR>
0

>  <SCORE.INTRA.POLAR.0>
0

>  <SCORE.INTRA.REPUL>
0

>  <SCORE.INTRA.REPUL.0>
0

>  <SCORE.INTRA.VDW>
-200.888

>  <SCORE.INTRA.VDW.0>
199.807

>  <SCORE.INTRA.norm>
-10.153

>  <SCORE.RESTR>
0

>  <SCORE.RESTR.CAVITY>
0

>  <SCORE.RESTR.norm>
0

>  <SCORE.SYSTEM>
-5.70408

>  <SCORE.SYSTEM.CONST>
0

>  <SCORE.SYSTEM.DIHEDRAL>
8.58478

>  <SCORE.SYSTEM.POLAR>
-3.70383

>  <SCORE.SYSTEM.REPUL>
0.0547064

>  <SCORE.SYSTEM.VDW>
2.32301

>  <SCORE.SYSTEM.norm>
-0.285204

>  <SCORE.heavy>
20

>  <SCORE.norm>
-11.1017

$$$$
F5854-4892
  rDOCK(R)          3D
libRbt.so/2013.1/901 2013/11/27
 21 22  0  0  0  0  0  0  0  0999 V2000
  -18.9906   25.0264   -9.8839 C   0  0  0  0  0  0
  -19.4626   24.8064  -11.2033 O   0  0  0  0  0  0
  -20.3443   23.6859  -11.3504 C   0  0  0  0  0  0
  -21.7672   23.8328  -10.6738 C   0  0  0  0  0  0
  -22.7067   22.6490  -10.6749 N   0  0  0  0  0  0
  -22.3345   20.9537  -11.0814 C   0  0  0  0  0  0
  -20.7660   20.0847  -12.0572 C   0  0  0  0  0  0
  -20.2485   18.7092  -12.3420 C   0  0  0  0  0  0
  -19.0773   18.5119  -13.6174 S   0  0  0  0  0  0
  -18.6231   20.1208  -13.5642 C   0  0  0  0  0  0
  -19.1621   20.6389  -12.4255 C   0  0  0  0  0  0
  -23.8645   22.8648  -10.0084 C   0  0  0  0  0  0
  -24.1447   23.7185   -9.1855 O   0  0  0  0  0  0
  -24.7117   21.9697  -10.4690 N   0  0  0  0  0  0
  -24.2571   21.1651  -11.5822 C   0  0  0  0  0  0
  -24.6691   19.2490  -12.1696 C   0  0  0  0  0  0
  -25.9404   19.1094  -13.7664 C   0  0  0  0  0  0
  -26.1670   20.6220  -14.8762 C   0  0  0  0  0  0
  -25.8495   22.2415  -14.2394 C   0  0  0  0  0  0
  -24.7139   22.5648  -12.8896 C   0  0  0  0  0  0
  -25.5268   21.7349   -9.9159 H   0  0  0  0  0  0
  1  2  1  0  0  0
  2  3  1  0  0  0
  3  4  1  0  0  0
  4  5  1  0  0  0
  5  6  1  0  0  0
  5 12  1  0  0  0
  6  7  1  0  0  0
  7  8  2  0  0  0
  7 11  1  0  0  0
  8  9  1  0  0  0
  9 10  1  0  0  0
 10 11  2  0  0  0
 12 13  2  0  0  0
 12 14  1  0  0  0
 14 15  1  0  0  0
 14 21  1  0  0  0
 15 16  1  0  0  0
 15 20  1  0  0  0
 16 17  1  0  0  0
 17 18  1  0  0  0
 18 19  1  0  0  0
 19 20  1  0  0  0
M  END
>  <CHROM.0>
-58.27588778,66.70389910,110.09619841,65.47576585,-30.42489445,61.75772343
82.04704138,-161.32740695

>  <CHROM.1>
68.66120545,-174.45879825,12.52973628,-16.31833868,171.70346870,149.21782720
-22.20537173,21.50571914,-11.97512426,0.04945970,-0.05870872,0.58246490

>  <Name>
F5854-4892

>  <RI>
1.42728e+07

>  <Rbt.Current_Directory>
/home/adria/Escritorio/rDock_CMTR_LC/2pxcA_model/inputs_sah

>  <Rbt.Executable>
rbdock ($Id: //depot/dev/client3/rdock/2013.1/src/exe/rbdock.cxx#4 $)

>  <Rbt.Library>
libRbt.so (2013.1, Build901 2013/11/27)

>  <Rbt.Parameter_File>
/home/adria/Escritorio/rDock_2013.1_src/data/scripts/dock.prm

>  <Rbt.Receptor>
sah_rdock.prm

>  <SCORE>
-212.485

>  <SCORE.INTER>
-3.84151

>  <SCORE.INTER.CONST>
1

>  <SCORE.INTER.POLAR>
0

>  <SCORE.INTER.REPUL>
0.0242259

>  <SCORE.INTER.ROT>
6

>  <SCORE.INTER.VDW>
-15.3626

>  <SCORE.INTER.norm>
-0.192075

>  <SCORE.INTRA>
-201.773

>  <SCORE.INTRA.DIHEDRAL>
-3.2006

>  <SCORE.INTRA.DIHEDRAL.0>
8.91395

>  <SCORE.INTRA.POLAR>
0

>  <SCORE.INTRA.POLAR.0>
0

>  <SCORE.INTRA.REPUL>
0

>  <SCORE.INTRA.REPUL.0>
0

>  <SCORE.INTRA.VDW>
-200.173

>  <SCORE.INTRA.VDW.0>
199.807

>  <SCORE.INTRA.norm>
-10.0886

>  <SCORE.RESTR>
0

>  <SCORE.RESTR.CAVITY>
0

>  <SCORE.RESTR.norm>
0

>  <SCORE.SYSTEM>
-6.87044

>  <SCORE.SYSTEM.CONST>
0

>  <SCORE.SYSTEM.DIHEDRAL>
8.83617

>  <SCORE.SYSTEM.POLAR>
-4.24237

>  <SCORE.SYSTEM.VDW>
3.13553

>  <SCORE.SYSTEM.norm>
-0.343522

>  <SCORE.heavy>
20

>  <SCORE.norm>
-10.6242

$$$$
F5854-4892
  rDOCK(R)          3D
libRbt.so/2013.1/901 2013/11/27
 21 22  0  0  0  0  0  0  0  0999 V2000
  -24.3482   19.5337   -8.2836 C   0  0  0  0  0  0
  -24.5738   19.9723   -9.6136 O   0  0  0  0  0  0
  -24.0255   19.1240  -10.6305 C   0  0  0  0  0  0
  -24.1407   19.6610  -12.1145 C   0  0  0  0  0  0
  -23.4458   20.9510  -12.4848 N   0  0  0  0  0  0
  -21.6951   21.2479  -12.6414 C   0  0  0  0  0  0
  -20.3773   20.9359  -14.1691 C   0  0  0  0  0  0
  -19.3343   21.7021  -14.9216 C   0  0  0  0  0  0
  -18.1721   20.8112  -15.8665 S   0  0  0  0  0  0
  -19.1531   19.4593  -15.9538 C   0  0  0  0  0  0
  -20.3855   19.8453  -15.5202 C   0  0  0  0  0  0
  -24.2623   21.8759  -13.0409 C   0  0  0  0  0  0
  -25.3624   21.7431  -13.5475 O   0  0  0  0  0  0
  -23.6503   23.0301  -12.8841 N   0  0  0  0  0  0
  -22.4426   23.0162  -12.0878 C   0  0  0  0  0  0
  -20.7592   24.1792  -12.0988 C   0  0  0  0  0  0
  -20.6623   25.5402  -10.5744 C   0  0  0  0  0  0
  -21.7420   25.2660   -9.0479 C   0  0  0  0  0  0
  -23.2182   24.2990   -9.1710 C   0  0  0  0  0  0
  -23.4552   23.0140  -10.3992 C   0  0  0  0  0  0
  -23.9098   23.8080  -13.4782 H   0  0  0  0  0  0
  1  2  1  0  0  0
  2  3  1  0  0  0
  3  4  1  0  0  0
  4  5  1  0  0  0
  5  6  1  0  0  0
  5 12  1  0  0  0
  6  7  1  0  0  0
  7  8  2  0  0  0
  7 11  1  0  0  0
  8  9  1  0  0  0
  9 10  1  0  0  0
 10 11  2  0  0  0
 12 13  2  0  0  0
 12 14  1  0  0  0
 14 15  1  0  0  0
 14 21  1  0  0  0
 15 16  1  0  0  0
 15 20  1  0  0  0
 16 17  1  0  0  0
 17 18  1  0  0  0
 18 19  1  0  0  0
 19 20  1  0  0  0
M  END
>  <CHROM.0>
-179.52987138,-74.11121695,-166.78014429,-60.14641166,-30.77777671,61.87697956
-35.52723561,-160.86756130

>  <CHROM.1>
-174.29965448,62.11527066,70.35868028,83.57514217,129.13435552,151.56778361
-22.08563018,21.70505826,-12.40346715,2.52040741,0.67054186,0.61360667

>  <Name>
F5854-4892

>  <RI>
1.42728e+07

>  <Rbt.Current_Directory>
/home/adria/Escritorio/rDock_CMTR_LC/2pxcA_model/inputs_sah

>  <Rbt.Executable>
rbdock ($Id: //depot/dev/client3/rdock/2013.1/src/exe/rbdock.cxx#4 $)

>  <Rbt.Library>
libRbt.so (2013.1, Build901 2013/11/27)

>  <Rbt.Parameter_File>
/home/adria/Escritorio/rDock_2013.1_src/data/scripts/dock.prm

>  <Rbt.Receptor>
sah_rdock.prm

>  <SCORE>
-216.459

>  <SCORE.INTER>
-5.80947

>  <SCORE.INTER.CONST>
1

>  <SCORE.INTER.POLAR>
0

>  <SCORE.INTER.REPUL>
0

>  <SCORE.INTER.ROT>
6

>  <SCORE.INTER.VDW>
-17.2095

>  <SCORE.INTER.norm>
-0.290474

>  <SCORE.INTRA>
-203.776

>  <SCORE.INTRA.DIHEDRAL>
-4.64294

>  <SCORE.INTRA.DIHEDRAL.0>
8.91395

>  <SCORE.INTRA.POLAR>
0

>  <SCORE.INTRA.POLAR.0>
0

>  <SCORE.INTRA.REPUL>
0

>  <SCORE.INTRA.REPUL.0>
0

>  <SCORE.INTRA.VDW>
-201.454

>  <SCORE.INTRA.VDW.0>
199.807

>  <SCORE.INTRA.norm>
-10.1888

>  <SCORE.RESTR>
0

>  <SCORE.RESTR.CAVITY>
0

>  <SCORE.RESTR.norm>
0

>  <SCORE.SYSTEM>
-6.87411

>  <SCORE.SYSTEM.CONST>
0

>  <SCORE.SYSTEM.DIHEDRAL>
6.61848

>  <SCORE.SYSTEM.POLAR>
-3.99235

>  <SCORE.SYSTEM.REPUL>
0.0404593

>  <SCORE.SYSTEM.VDW>
3.18835

>  <SCORE.SYSTEM.norm>
-0.343705

>  <SCORE.heavy>
20

>  <SCORE.norm>
-10.823

$$$$
F5854-4892
  rDOCK(R)          3D
libRbt.so/2013.1/901 2013/11/27
 21 22  0  0  0  0  0  0  0  0999 V2000
  -14.7420   17.0166  -17.0077 C   0  0  0  0  0  0
  -16.0446   17.5779  -16.9959 O   0  0  0  0  0  0
  -16.0860   19.0096  -17.0515 C   0  0  0  0  0  0
  -17.5289   19.6586  -17.0789 C   0  0  0  0  0  0
  -18.4567   19.4361  -15.9068 N   0  0  0  0  0  0
  -18.5571   18.0094  -14.8429 C   0  0  0  0  0  0
  -18.5130   16.0039  -15.2218 C   0  0  0  0  0  0
  -18.6903   15.0808  -16.3869 C   0  0  0  0  0  0
  -18.1074   13.4446  -16.2442 S   0  0  0  0  0  0
  -18.1200   13.4962  -14.5724 C   0  0  0  0  0  0
  -18.8144   14.6152  -14.2239 C   0  0  0  0  0  0
  -19.0511   20.5643  -15.4537 C   0  0  0  0  0  0
  -18.7510   21.7314  -15.6329 O   0  0  0  0  0  0
  -20.1112   20.1634  -14.7854 N   0  0  0  0  0  0
  -20.4129   18.7496  -14.8434 C   0  0  0  0  0  0
  -21.3143   17.4676  -13.5280 C   0  0  0  0  0  0
  -23.2377   16.9701  -14.0164 C   0  0  0  0  0  0
  -23.8128   17.2257  -15.7983 C   0  0  0  0  0  0
  -23.0035   18.4161  -16.8264 C   0  0  0  0  0  0
  -21.2997   18.9246  -16.5926 C   0  0  0  0  0  0
  -20.5303   20.7891  -14.1084 H   0  0  0  0  0  0
  1  2  1  0  0  0
  2  3  1  0  0  0
  3  4  1  0  0  0
  4  5  1  0  0  0
  5  6  1  0  0  0
  5 12  1  0  0  0
  6  7  1  0  0  0
  7  8  2  0  0  0
  7 11  1  0  0  0
  8  9  1  0  0  0
  9 10  1  0  0  0
 10 11  2  0  0  0
 12 13  2  0  0  0
 12 14  1  0  0  0
 14 15  1  0  0  0
 14 21  1  0  0  0
 15 16  1  0  0  0
 15 20  1  0  0  0
 16 17  1  0  0  0
 17 18  1  0  0  0
 18 19  1  0  0  0
 19 20  1  0  0  0
M  END
>  <CHROM.0>
-177.44172219,66.58075232,72.13742439,64.33271064,-30.30622719,-56.35588961
-37.13513856,-161.24064254

>  <CHROM.1>
178.41699852,61.79519313,-31.68423901,-42.75434493,-17.20773962,150.10179476
-19.13814269,17.47648524,-15.70788064,-0.77617305,0.24882574,-0.08368185

>  <Name>
F5854-4892

>  <RI>
1.42728e+07

>  <Rbt.Current_Directory>
/home/adria/Escritorio/rDock_CMTR_LC/2pxcA_model/inputs_sah

>  <Rbt.Executable>
rbdock ($Id: //depot/dev/client3/rdock/2013.1/src/exe/rbdock.cxx#4 $)

>  <Rbt.Library>
libRbt.so (2013.1, Build901 2013/11/27)

>  <Rbt.Parameter_File>
/home/adria/Escritorio/rDock_2013.1_src/data/scripts/dock.prm

>  <Rbt.Receptor>
sah_rdock.prm

>  <SCORE>
-216.541

>  <SCORE.INTER>
-6.01138

>  <SCORE.INTER.CONST>
1

>  <SCORE.INTER.POLAR>
0

>  <SCORE.INTER.REPUL>
0

>  <SCORE.INTER.ROT>
6

>  <SCORE.INTER.VDW>
-17.4114

>  <SCORE.INTER.norm>
-0.300569

>  <SCORE.INTRA>
-203.569

>  <SCORE.INTRA.DIHEDRAL>
-3.43753

>  <SCORE.INTRA.DIHEDRAL.0>
8.91395

>  <SCORE.INTRA.POLAR>
0

>  <SCORE.INTRA.POLAR.0>
0

>  <SCORE.INTRA.REPUL>
0

>  <SCORE.INTRA.REPUL.0>
0

>  <SCORE.INTRA.VDW>
-201.85

>  <SCORE.INTRA.VDW.0>
199.807

>  <SCORE.INTRA.norm>
-10.1784

>  <SCORE.RESTR>
0

>  <SCORE.RESTR.CAVITY>
0

>  <SCORE.RESTR.norm>
0

>  <SCORE.SYSTEM>
-6.96089

>  <SCORE.SYSTEM.CONST>
0

>  <SCORE.SYSTEM.DIHEDRAL>
5.90224

>  <SCORE.SYSTEM.POLAR>
-3.7173

>  <SCORE.SYSTEM.VDW>
2.72681

>  <SCORE.SYSTEM.norm>
-0.348044

>  <SCORE.heavy>
20

>  <SCORE.norm>
-10.8271

$$$$
F5854-4892
  rDOCK(R)          3D
libRbt.so/2013.1/901 2013/11/27
 21 22  0  0  0  0  0  0  0  0999 V2000
  -24.3188   17.3527  -11.1434 C   0  0  0  0  0  0
  -25.5030   18.1272  -11.0437 O   0  0  0  0  0  0
  -25.4781   19.3646  -11.7666 C   0  0  0  0  0  0
  -24.6706   20.5447  -11.0888 C   0  0  0  0  0  0
  -23.1610   20.5378  -11.1604 N   0  0  0  0  0  0
  -22.0971   21.7029  -11.9901 C   0  0  0  0  0  0
  -21.3529   23.5221  -11.4385 C   0  0  0  0  0  0
  -21.6536   24.9706  -11.6674 C   0  0  0  0  0  0
  -20.9512   26.1438  -10.5869 S   0  0  0  0  0  0
  -19.7422   25.0959  -10.0992 C   0  0  0  0  0  0
  -19.7659   24.0454  -10.9663 C   0  0  0  0  0  0
  -22.5705   19.7322  -10.2474 C   0  0  0  0  0  0
  -23.0195   19.2549   -9.2203 O   0  0  0  0  0  0
  -21.3642   19.4909  -10.7141 N   0  0  0  0  0  0
  -21.0762   19.9862  -12.0426 C   0  0  0  0  0  0
  -19.3953   20.7862  -12.8916 C   0  0  0  0  0  0
  -18.3887   19.5122  -14.1361 C   0  0  0  0  0  0
  -19.3070   18.0134  -14.8303 C   0  0  0  0  0  0
  -20.7090   17.3600  -13.9721 C   0  0  0  0  0  0
  -21.7504   18.3432  -12.8929 C   0  0  0  0  0  0
  -20.6442   19.1768  -10.0750 H   0  0  0  0  0  0
  1  2  1  0  0  0
  2  3  1  0  0  0
  3  4  1  0  0  0
  4  5  1  0  0  0
  5  6  1  0  0  0
  5 12  1  0  0  0
  6  7  1  0  0  0
  7  8  2  0  0  0
  7 11  1  0  0  0
  8  9  1  0  0  0
  9 10  1  0  0  0
 10 11  2  0  0  0
 12 13  2  0  0  0
 12 14  1  0  0  0
 14 15  1  0  0  0
 14 21  1  0  0  0
 15 16  1  0  0  0
 15 20  1  0  0  0
 16 17  1  0  0  0
 17 18  1  0  0  0
 18 19  1  0  0  0
 19 20  1  0  0  0
M  END
>  <CHROM.0>
-64.24843245,-73.91772050,-47.62085515,63.74475680,167.94663241,62.78977534
-38.00075112,-165.56891968

>  <CHROM.1>
-77.77048254,77.14716409,115.21995783,83.33723340,-99.33386792,143.16725820
-21.81339853,20.93157576,-11.61784607,1.92758801,-0.49278956,-2.79747143

>  <Name>
F5854-4892

>  <RI>
1.42728e+07

>  <Rbt.Current_Directory>
/home/adria/Escritorio/rDock_CMTR_LC/2pxcA_model/inputs_sah

>  <Rbt.Executable>
rbdock ($Id: //depot/dev/client3/rdock/2013.1/src/exe/rbdock.cxx#4 $)

>  <Rbt.Library>
libRbt.so (2013.1, Build901 2013/11/27)

>  <Rbt.Parameter_File>
/home/adria/Escritorio/rDock_2013.1_src/data/scripts/dock.prm

>  <Rbt.Receptor>
sah_rdock.prm

>  <SCORE>
-217.723

>  <SCORE.INTER>
-13.7215

>  <SCORE.INTER.CONST>
1

>  <SCORE.INTER.POLAR>
-1.55497

>  <SCORE.INTER.REPUL>
0

>  <SCORE.INTER.ROT>
6

>  <SCORE.INTER.VDW>
-19.8346

>  <SCORE.INTER.norm>
-0.686075

>  <SCORE.INTRA>
-201.289

>  <SCORE.INTRA.DIHEDRAL>
-2.09962

>  <SCORE.INTRA.DIHEDRAL.0>
8.91395

>  <SCORE.INTRA.POLAR>
0

>  <SCORE.INTRA.POLAR.0>
0

>  <SCORE.INTRA.REPUL>
0

>  <SCORE.INTRA.REPUL.0>
0

>  <SCORE.INTRA.VDW>
-200.24

>  <SCORE.INTRA.VDW.0>
199.807

>  <SCORE.INTRA.norm>
-10.0645

>  <SCORE.RESTR>
0

>  <SCORE.RESTR.CAVITY>
0

>  <SCORE.RESTR.norm>
0

>  <SCORE.SYSTEM>
-2.71235

>  <SCORE.SYSTEM.CONST>
0

>  <SCORE.SYSTEM.DIHEDRAL>
3.51582

>  <SCORE.SYSTEM.POLAR>
-3.90382

>  <SCORE.SYSTEM.REPUL>
0.040133

>  <SCORE.SYSTEM.VDW>
8.60205

>  <SCORE.SYSTEM.norm>
-0.135618

>  <SCORE.heavy>
20

>  <SCORE.norm>
-10.8862

$$$$
F5854-4892
  rDOCK(R)          3D
libRbt.so/2013.1/901 2013/11/27
 21 22  0  0  0  0  0  0  0  0999 V2000
  -18.5856   25.4360  -10.1481 C   0  0  0  0  0  0
  -19.6342   26.3063   -9.7542 O   0  0  0  0  0  0
  -20.9544   25.7700   -9.9081 C   0  0  0  0  0  0
  -21.4202   25.4967  -11.3955 C   0  0  0  0  0  0
  -22.0834   24.1799  -11.7274 N   0  0  0  0  0  0
  -22.7071   22.9505  -10.5973 C   0  0  0  0  0  0
  -24.4548   22.8014   -9.5528 C   0  0  0  0  0  0
  -25.5239   23.7065   -9.0247 C   0  0  0  0  0  0
  -27.0528   23.0054   -8.5687 S   0  0  0  0  0  0
  -26.3958   21.4771   -8.3938 C   0  0  0  0  0  0
  -25.0425   21.6320   -8.4116 C   0  0  0  0  0  0
  -22.5061   24.0844  -13.0094 C   0  0  0  0  0  0
  -22.7017   24.9591  -13.8347 O   0  0  0  0  0  0
  -22.6275   22.7962  -13.2482 N   0  0  0  0  0  0
  -22.1653   21.9018  -12.2093 C   0  0  0  0  0  0
  -22.7736   20.0439  -11.6053 C   0  0  0  0  0  0
  -21.5479   18.5182  -12.2011 C   0  0  0  0  0  0
  -19.7768   18.9299  -12.7157 C   0  0  0  0  0  0
  -19.3785   20.5543  -13.2921 C   0  0  0  0  0  0
  -20.2975   22.0204  -12.8209 C   0  0  0  0  0  0
  -23.2126   22.4924  -14.0169 H   0  0  0  0  0  0
  1  2  1  0  0  0
  2  3  1  0  0  0
  3  4  1  0  0  0
  4  5  1  0  0  0
  5  6  1  0  0  0
  5 12  1  0  0  0
  6  7  1  0  0  0
  7  8  2  0  0  0
  7 11  1  0  0  0
  8  9  1  0  0  0
  9 10  1  0  0  0
 10 11  2  0  0  0
 12 13  2  0  0  0
 12 14  1  0  0  0
 14 15  1  0  0  0
 14 21  1  0  0  0
 15 16  1  0  0  0
 15 20  1  0  0  0
 16 17  1  0  0  0
 17 18  1  0  0  0
 18 19  1  0  0  0
 19 20  1  0  0  0
M  END
>  <CHROM.0>
-66.66646933,67.12372827,-9.13927959,-65.45708352,168.23699250,58.37140428
80.73300614,-156.10794605

>  <CHROM.1>
-65.87556565,133.54508580,12.39468259,81.32499274,-24.10786574,148.46292479
-22.59182367,22.88469405,-11.00073587,-0.16641923,0.50696144,0.33420469

>  <Name>
F5854-4892

>  <RI>
1.42728e+07

>  <Rbt.Current_Directory>
/home/adria/Escritorio/rDock_CMTR_LC/2pxcA_model/inputs_sah

>  <Rbt.Executable>
rbdock ($Id: //depot/dev/client3/rdock/2013.1/src/exe/rbdock.cxx#4 $)

>  <Rbt.Library>
libRbt.so (2013.1, Build901 2013/11/27)

>  <Rbt.Parameter_File>
/home/adria/Escritorio/rDock_2013.1_src/data/scripts/dock.prm

>  <Rbt.Receptor>
sah_rdock.prm

>  <SCORE>
-217.999

>  <SCORE.INTER>
-17.0237

>  <SCORE.INTER.CONST>
1

>  <SCORE.INTER.POLAR>
-2.16405

>  <SCORE.INTER.REPUL>
0

>  <SCORE.INTER.ROT>
6

>  <SCORE.INTER.VDW>
-21.0659

>  <SCORE.INTER.norm>
-0.851183

>  <SCORE.INTRA>
-199.371

>  <SCORE.INTRA.DIHEDRAL>
1.30846

>  <SCORE.INTRA.DIHEDRAL.0>
8.91395

>  <SCORE.INTRA.POLAR>
0

>  <SCORE.INTRA.POLAR.0>
0

>  <SCORE.INTRA.REPUL>
0

>  <SCORE.INTRA.REPUL.0>
0

>  <SCORE.INTRA.VDW>
-200.025

>  <SCORE.INTRA.VDW.0>
199.807

>  <SCORE.INTRA.norm>
-9.96855

>  <SCORE.RESTR>
0

>  <SCORE.RESTR.CAVITY>
0

>  <SCORE.RESTR.norm>
0

>  <SCORE.SYSTEM>
-1.6042

>  <SCORE.SYSTEM.CONST>
0

>  <SCORE.SYSTEM.DIHEDRAL>
6.42468

>  <SCORE.SYSTEM.POLAR>
-4.12387

>  <SCORE.SYSTEM.VDW>
9.20461

>  <SCORE.SYSTEM.norm>
-0.0802098

>  <SCORE.heavy>
20

>  <SCORE.norm>
-10.8999

$$$$
F5854-4892
  rDOCK(R)          3D
libRbt.so/2013.1/901 2013/11/27
 21 22  0  0  0  0  0  0  0  0999 V2000
  -27.2994   20.0429  -13.3553 C   0  0  0  0  0  0
  -26.8149   18.9593  -12.5787 O   0  0  0  0  0  0
  -25.3890   18.9022  -12.4446 C   0  0  0  0  0  0
  -24.7336   20.0290  -11.5475 C   0  0  0  0  0  0
  -23.2330   20.2072  -11.5719 N   0  0  0  0  0  0
  -22.2875   21.4234  -12.4688 C   0  0  0  0  0  0
  -22.1499   23.4538  -12.3064 C   0  0  0  0  0  0
  -22.7188   24.6706  -12.9673 C   0  0  0  0  0  0
  -22.5967   26.1981  -12.1372 S   0  0  0  0  0  0
  -21.3305   25.6724  -11.1791 C   0  0  0  0  0  0
  -20.8947   24.5007  -11.7204 C   0  0  0  0  0  0
  -22.5861   19.5628  -10.5732 C   0  0  0  0  0  0
  -23.0150   19.1208   -9.5220 O   0  0  0  0  0  0
  -21.3409   19.4376  -10.9795 N   0  0  0  0  0  0
  -21.0613   19.8515  -12.3373 C   0  0  0  0  0  0
  -19.4194   20.6931  -13.2216 C   0  0  0  0  0  0
  -18.3128   19.3983  -14.3548 C   0  0  0  0  0  0
  -19.1225   17.7969  -14.9475 C   0  0  0  0  0  0
  -20.4955   17.1197  -14.0612 C   0  0  0  0  0  0
  -21.6156   18.1107  -13.0717 C   0  0  0  0  0  0
  -20.6148   19.2721  -10.2932 H   0  0  0  0  0  0
  1  2  1  0  0  0
  2  3  1  0  0  0
  3  4  1  0  0  0
  4  5  1  0  0  0
  5  6  1  0  0  0
  5 12  1  0  0  0
  6  7  1  0  0  0
  7  8  2  0  0  0
  7 11  1  0  0  0
  8  9  1  0  0  0
  9 10  1  0  0  0
 10 11  2  0  0  0
 12 13  2  0  0  0
 12 14  1  0  0  0
 14 15  1  0  0  0
 14 21  1  0  0  0
 15 16  1  0  0  0
 15 20  1  0  0  0
 16 17  1  0  0  0
 17 18  1  0  0  0
 18 19  1  0  0  0
 19 20  1  0  0  0
M  END
>  <CHROM.0>
-60.99000410,-170.63801301,72.02131987,65.74314050,-31.46244704,61.56259796
-156.02634576,-161.26359790

>  <CHROM.1>
70.22068238,-168.09339384,100.12936051,66.52370415,-98.32521765,146.98332754
-22.39380101,21.00842977,-12.34914613,1.56320727,-0.20714976,-3.01355030

>  <Name>
F5854-4892

>  <RI>
1.42728e+07

>  <Rbt.Current_Directory>
/home/adria/Escritorio/rDock_CMTR_LC/2pxcA_model/inputs_sah

>  <Rbt.Executable>
rbdock ($Id: //depot/dev/client3/rdock/2013.1/src/exe/rbdock.cxx#4 $)

>  <Rbt.Library>
libRbt.so (2013.1, Build901 2013/11/27)

>  <Rbt.Parameter_File>
/home/adria/Escritorio/rDock_2013.1_src/data/scripts/dock.prm

>  <Rbt.Receptor>
sah_rdock.prm

>  <SCORE>
-220.928

>  <SCORE.INTER>
-12.4617

>  <SCORE.INTER.CONST>
1

>  <SCORE.INTER.POLAR>
-1.63653

>  <SCORE.INTER.REPUL>
0

>  <SCORE.INTER.ROT>
6

>  <SCORE.INTER.VDW>
-18.2975

>  <SCORE.INTER.norm>
-0.623086

>  <SCORE.INTRA>
-201.715

>  <SCORE.INTRA.DIHEDRAL>
-3.23333

>  <SCORE.INTRA.DIHEDRAL.0>
8.91395

>  <SCORE.INTRA.POLAR>
0

>  <SCORE.INTRA.POLAR.0>
0

>  <SCORE.INTRA.REPUL>
0

>  <SCORE.INTRA.REPUL.0>
0

>  <SCORE.INTRA.VDW>
-200.098

>  <SCORE.INTRA.VDW.0>
199.807

>  <SCORE.INTRA.norm>
-10.0857

>  <SCORE.RESTR>
0.00487375

>  <SCORE.RESTR.CAVITY>
0.00487375

>  <SCORE.RESTR.norm>
0.000243687

>  <SCORE.SYSTEM>
-6.75627

>  <SCORE.SYSTEM.CONST>
0

>  <SCORE.SYSTEM.DIHEDRAL>
6.00274

>  <SCORE.SYSTEM.POLAR>
-3.8082

>  <SCORE.SYSTEM.VDW>
3.19023

>  <SCORE.SYSTEM.norm>
-0.337813

>  <SCORE.heavy>
20

>  <SCORE.norm>
-11.0464

$$$$
