F0545-1023
  rDOCK(R)          3D
libRbt.so/2013.1/901 2013/11/27
 28 31  0  0  0  0  0  0  0  0999 V2000
  -27.3387   22.0437  -10.4990 C   0  0  0  0  0  0
  -25.6071   21.5992  -11.2014 C   0  0  0  0  0  0
  -24.8559   22.7478  -13.0388 C   0  0  0  0  0  0
  -24.4333   24.6427  -12.3561 C   0  0  0  0  0  0
  -23.6580   24.7227  -10.7179 N   0  0  0  0  0  0
  -24.4459   23.9433   -9.4155 C   0  0  0  0  0  0
  -24.9258   22.2133   -9.5243 C   0  0  0  0  0  0
  -22.1934   24.4888  -10.6551 C   0  0  0  0  0  0
  -21.4539   25.0996   -9.8805 O   0  0  0  0  0  0
  -21.6866   23.2117  -11.4054 C   0  0  0  0  0  0
  -20.4821   23.6233  -12.7831 S   0  0  0  0  0  0
  -20.0234   22.1419  -13.6756 C   0  0  0  0  0  0
  -19.5860   22.0976  -14.9796 C   0  0  0  0  0  0
  -19.6049   20.7721  -15.4301 N   0  0  0  0  0  0
  -19.2331   20.4156  -16.7917 C   0  0  0  0  0  0
  -17.9270   19.6579  -16.8401 C   0  0  0  0  0  0
  -17.8731   18.3789  -17.4137 C   0  0  0  0  0  0
  -16.6674   17.6747  -17.4700 C   0  0  0  0  0  0
  -15.5094   18.2363  -16.9371 C   0  0  0  0  0  0
  -14.0350   17.3503  -16.9738 Cl  0  0  0  0  0  0
  -15.5418   19.5068  -16.3683 C   0  0  0  0  0  0
  -16.7463   20.2160  -16.3198 C   0  0  0  0  0  0
  -20.2475   19.9410  -14.5034 C   0  0  0  0  0  0
  -20.0732   20.7605  -13.2605 C   0  0  0  0  0  0
  -20.7012   20.1714  -11.8117 C   0  0  0  0  0  0
  -21.7425   18.5132  -11.5646 C   0  0  0  0  0  0
  -21.8735   17.7043  -13.2107 C   0  0  0  0  0  0
  -21.0740   18.4652  -14.5588 C   0  0  0  0  0  0
  1  2  1  0  0  0
  2  3  1  0  0  0
  2  7  1  0  0  0
  3  4  1  0  0  0
  4  5  1  0  0  0
  5  6  1  0  0  0
  5  8  1  0  0  0
  6  7  1  0  0  0
  8  9  2  0  0  0
  8 10  1  0  0  0
 10 11  1  0  0  0
 11 12  1  0  0  0
 12 13  2  0  0  0
 12 24  1  0  0  0
 13 14  1  0  0  0
 14 15  1  0  0  0
 14 23  1  0  0  0
 15 16  1  0  0  0
 16 17  2  0  0  0
 16 22  1  0  0  0
 17 18  1  0  0  0
 18 19  2  0  0  0
 19 20  1  0  0  0
 19 21  1  0  0  0
 21 22  2  0  0  0
 23 24  2  0  0  0
 23 28  1  0  0  0
 24 25  1  0  0  0
 25 26  2  0  0  0
 26 27  1  0  0  0
 27 28  2  0  0  0
M  END
>  <CHROM.0>
178.06713339,-71.02621822,72.07665948,58.61550008,168.39847010,-174.49179801
-35.96959955,-52.67399554

>  <CHROM.1>
143.21450372,118.98635731,-176.14492633,154.79944866,110.51014456,122.23332839
-20.42592198,21.06866667,-13.63030528,2.49730893,0.44463853,0.36314836

>  <Name>
F0545-1023

>  <RI>
4.13433e+07

>  <Rbt.Current_Directory>
/home/adria/Escritorio/rDock_CMTR_LC/2pxcA_model/inputs_sah

>  <Rbt.Executable>
rbdock ($Id: //depot/dev/client3/rdock/2013.1/src/exe/rbdock.cxx#4 $)

>  <Rbt.Library>
libRbt.so (2013.1, Build901 2013/11/27)

>  <Rbt.Parameter_File>
/home/adria/Escritorio/rDock_2013.1_src/data/scripts/dock.prm

>  <Rbt.Receptor>
sah_rdock.prm

>  <SCORE>
-271.585

>  <SCORE.INTER>
-16.7582

>  <SCORE.INTER.CONST>
1

>  <SCORE.INTER.POLAR>
-0.87178

>  <SCORE.INTER.REPUL>
0

>  <SCORE.INTER.ROT>
6

>  <SCORE.INTER.VDW>
-25.1941

>  <SCORE.INTER.norm>
-0.598506

>  <SCORE.INTRA>
-254.661

>  <SCORE.INTRA.DIHEDRAL>
0.726884

>  <SCORE.INTRA.DIHEDRAL.0>
4.53132

>  <SCORE.INTRA.POLAR>
0

>  <SCORE.INTRA.POLAR.0>
0

>  <SCORE.INTRA.REPUL>
0

>  <SCORE.INTRA.REPUL.0>
0

>  <SCORE.INTRA.VDW>
-255.025

>  <SCORE.INTRA.VDW.0>
252.445

>  <SCORE.INTRA.norm>
-9.09505

>  <SCORE.RESTR>
0

>  <SCORE.RESTR.CAVITY>
0

>  <SCORE.RESTR.norm>
0

>  <SCORE.SYSTEM>
-0.165649

>  <SCORE.SYSTEM.CONST>
0

>  <SCORE.SYSTEM.DIHEDRAL>
5.9577

>  <SCORE.SYSTEM.POLAR>
-3.57309

>  <SCORE.SYSTEM.REPUL>
0.0397425

>  <SCORE.SYSTEM.VDW>
8.80529

>  <SCORE.SYSTEM.norm>
-0.00591603

>  <SCORE.heavy>
28

>  <SCORE.norm>
-9.69947

$$$$
F0545-1023
  rDOCK(R)          3D
libRbt.so/2013.1/901 2013/11/27
 28 31  0  0  0  0  0  0  0  0999 V2000
  -25.4229   18.0952   -9.9567 C   0  0  0  0  0  0
  -24.9552   18.4425  -11.7870 C   0  0  0  0  0  0
  -25.2555   20.5668  -12.5976 C   0  0  0  0  0  0
  -23.8007   21.7031  -11.6878 C   0  0  0  0  0  0
  -22.1840   20.8989  -11.5127 N   0  0  0  0  0  0
  -22.1209   19.3804  -10.7288 C   0  0  0  0  0  0
  -23.1668   18.0179  -11.2624 C   0  0  0  0  0  0
  -21.2964   20.9075  -12.7026 C   0  0  0  0  0  0
  -21.7032   20.6551  -13.8388 O   0  0  0  0  0  0
  -19.8873   21.5529  -12.4822 C   0  0  0  0  0  0
  -18.5018   20.2916  -12.5713 S   0  0  0  0  0  0
  -18.5810   19.3841  -14.1112 C   0  0  0  0  0  0
  -17.7825   19.6036  -15.2103 C   0  0  0  0  0  0
  -18.3139   18.9234  -16.3126 N   0  0  0  0  0  0
  -17.7058   19.0020  -17.6330 C   0  0  0  0  0  0
  -16.8434   17.7975  -17.9298 C   0  0  0  0  0  0
  -17.4269   16.6053  -18.3835 C   0  0  0  0  0  0
  -16.6356   15.4893  -18.6683 C   0  0  0  0  0  0
  -15.2563   15.5508  -18.4846 C   0  0  0  0  0  0
  -14.2895   14.1627  -18.7995 Cl  0  0  0  0  0  0
  -14.6580   16.7269  -18.0399 C   0  0  0  0  0  0
  -15.4483   17.8471  -17.7634 C   0  0  0  0  0  0
  -19.5826   18.4090  -16.0153 C   0  0  0  0  0  0
  -19.4861   18.3373  -14.5213 C   0  0  0  0  0  0
  -20.8122   17.7625  -13.6544 C   0  0  0  0  0  0
  -22.5635   17.2300  -14.3923 C   0  0  0  0  0  0
  -22.4715   17.4440  -16.2163 C   0  0  0  0  0  0
  -20.9616   17.9826  -16.8987 C   0  0  0  0  0  0
  1  2  1  0  0  0
  2  3  1  0  0  0
  2  7  1  0  0  0
  3  4  1  0  0  0
  4  5  1  0  0  0
  5  6  1  0  0  0
  5  8  1  0  0  0
  6  7  1  0  0  0
  8  9  2  0  0  0
  8 10  1  0  0  0
 10 11  1  0  0  0
 11 12  1  0  0  0
 12 13  2  0  0  0
 12 24  1  0  0  0
 13 14  1  0  0  0
 14 15  1  0  0  0
 14 23  1  0  0  0
 15 16  1  0  0  0
 16 17  2  0  0  0
 16 22  1  0  0  0
 17 18  1  0  0  0
 18 19  2  0  0  0
 19 20  1  0  0  0
 19 21  1  0  0  0
 21 22  2  0  0  0
 23 24  2  0  0  0
 23 28  1  0  0  0
 24 25  1  0  0  0
 25 26  2  0  0  0
 26 27  1  0  0  0
 27 28  2  0  0  0
M  END
>  <CHROM.0>
-178.02304720,-72.04293899,-167.20690551,62.46188123,-30.67742356,-58.51274789
80.61816803,-162.40212263

>  <CHROM.1>
-44.31621836,111.98472134,54.49081023,101.83034480,99.32886708,81.79439262
-19.62068251,18.41561634,-14.82978114,2.44091857,0.36729372,0.64063530

>  <Name>
F0545-1023

>  <RI>
4.13433e+07

>  <Rbt.Current_Directory>
/home/adria/Escritorio/rDock_CMTR_LC/2pxcA_model/inputs_sah

>  <Rbt.Executable>
rbdock ($Id: //depot/dev/client3/rdock/2013.1/src/exe/rbdock.cxx#4 $)

>  <Rbt.Library>
libRbt.so (2013.1, Build901 2013/11/27)

>  <Rbt.Parameter_File>
/home/adria/Escritorio/rDock_2013.1_src/data/scripts/dock.prm

>  <Rbt.Receptor>
sah_rdock.prm

>  <SCORE>
-274.662

>  <SCORE.INTER>
-12.5287

>  <SCORE.INTER.CONST>
1

>  <SCORE.INTER.POLAR>
0

>  <SCORE.INTER.REPUL>
0

>  <SCORE.INTER.ROT>
6

>  <SCORE.INTER.VDW>
-23.9287

>  <SCORE.INTER.norm>
-0.447455

>  <SCORE.INTRA>
-255.141

>  <SCORE.INTRA.DIHEDRAL>
3.52356

>  <SCORE.INTRA.DIHEDRAL.0>
4.53132

>  <SCORE.INTRA.POLAR>
0

>  <SCORE.INTRA.POLAR.0>
0

>  <SCORE.INTRA.REPUL>
0

>  <SCORE.INTRA.REPUL.0>
0

>  <SCORE.INTRA.VDW>
-256.902

>  <SCORE.INTRA.VDW.0>
252.445

>  <SCORE.INTRA.norm>
-9.11217

>  <SCORE.RESTR>
0

>  <SCORE.RESTR.CAVITY>
0

>  <SCORE.RESTR.norm>
0

>  <SCORE.SYSTEM>
-6.99265

>  <SCORE.SYSTEM.CONST>
0

>  <SCORE.SYSTEM.DIHEDRAL>
5.99804

>  <SCORE.SYSTEM.POLAR>
-3.84909

>  <SCORE.SYSTEM.REPUL>
0.0367818

>  <SCORE.SYSTEM.VDW>
2.91133

>  <SCORE.SYSTEM.norm>
-0.249737

>  <SCORE.heavy>
28

>  <SCORE.norm>
-9.80936

$$$$
F0545-1023
  rDOCK(R)          3D
libRbt.so/2013.1/901 2013/11/27
 28 31  0  0  0  0  0  0  0  0999 V2000
  -16.8203   11.5303  -17.6005 C   0  0  0  0  0  0
  -15.8995   13.0010  -16.7769 C   0  0  0  0  0  0
  -14.9885   14.6072  -18.1369 C   0  0  0  0  0  0
  -16.5946   15.6408  -18.9036 C   0  0  0  0  0  0
  -17.9511   15.9433  -17.7376 N   0  0  0  0  0  0
  -18.6299   14.5997  -16.9261 C   0  0  0  0  0  0
  -17.5933   13.4486  -16.0121 C   0  0  0  0  0  0
  -17.7944   17.0888  -16.8065 C   0  0  0  0  0  0
  -17.7222   16.9482  -15.5837 O   0  0  0  0  0  0
  -17.4181   18.4515  -17.4788 C   0  0  0  0  0  0
  -17.1941   19.8289  -16.2254 S   0  0  0  0  0  0
  -18.6920   20.0577  -15.2739 C   0  0  0  0  0  0
  -18.7518   20.4948  -13.9704 C   0  0  0  0  0  0
  -20.0386   20.2724  -13.4656 N   0  0  0  0  0  0
  -20.3939   20.5962  -12.0914 C   0  0  0  0  0  0
  -20.9854   21.9813  -11.9728 C   0  0  0  0  0  0
  -22.0508   22.2215  -11.0925 C   0  0  0  0  0  0
  -22.5982   23.5015  -10.9706 C   0  0  0  0  0  0
  -22.0963   24.5478  -11.7410 C   0  0  0  0  0  0
  -22.7981   26.1138  -11.6164 Cl  0  0  0  0  0  0
  -21.0357   24.3302  -12.6165 C   0  0  0  0  0  0
  -20.4813   23.0514  -12.7324 C   0  0  0  0  0  0
  -20.7952   19.4989  -14.3554 C   0  0  0  0  0  0
  -20.0640   19.7881  -15.6315 C   0  0  0  0  0  0
  -20.6051   19.0622  -17.0530 C   0  0  0  0  0  0
  -22.0877   17.7715  -17.2286 C   0  0  0  0  0  0
  -22.7989   17.5304  -15.5502 C   0  0  0  0  0  0
  -22.1194   18.4517  -14.2368 C   0  0  0  0  0  0
  1  2  1  0  0  0
  2  3  1  0  0  0
  2  7  1  0  0  0
  3  4  1  0  0  0
  4  5  1  0  0  0
  5  6  1  0  0  0
  5  8  1  0  0  0
  6  7  1  0  0  0
  8  9  2  0  0  0
  8 10  1  0  0  0
 10 11  1  0  0  0
 11 12  1  0  0  0
 12 13  2  0  0  0
 12 24  1  0  0  0
 13 14  1  0  0  0
 14 15  1  0  0  0
 14 23  1  0  0  0
 15 16  1  0  0  0
 16 17  2  0  0  0
 16 22  1  0  0  0
 17 18  1  0  0  0
 18 19  2  0  0  0
 19 20  1  0  0  0
 19 21  1  0  0  0
 21 22  2  0  0  0
 23 24  2  0  0  0
 23 28  1  0  0  0
 24 25  1  0  0  0
 25 26  2  0  0  0
 26 27  1  0  0  0
 27 28  2  0  0  0
M  END
>  <CHROM.0>
-60.82163717,68.81876904,-46.71835834,63.94114332,-31.26939290,-58.29823814
-36.89464427,-159.08947595

>  <CHROM.1>
-116.08509885,-178.40109714,-58.60025776,149.62619742,93.26004803,141.55498795
-19.53984077,19.25487196,-14.91938097,1.10630893,-0.40718093,-2.81092640

>  <Name>
F0545-1023

>  <RI>
4.13433e+07

>  <Rbt.Current_Directory>
/home/adria/Escritorio/rDock_CMTR_LC/2pxcA_model/inputs_sah

>  <Rbt.Executable>
rbdock ($Id: //depot/dev/client3/rdock/2013.1/src/exe/rbdock.cxx#4 $)

>  <Rbt.Library>
libRbt.so (2013.1, Build901 2013/11/27)

>  <Rbt.Parameter_File>
/home/adria/Escritorio/rDock_2013.1_src/data/scripts/dock.prm

>  <Rbt.Receptor>
sah_rdock.prm

>  <SCORE>
-273.07

>  <SCORE.INTER>
-11.3089

>  <SCORE.INTER.CONST>
1

>  <SCORE.INTER.POLAR>
0

>  <SCORE.INTER.REPUL>
0

>  <SCORE.INTER.ROT>
6

>  <SCORE.INTER.VDW>
-22.7089

>  <SCORE.INTER.norm>
-0.403889

>  <SCORE.INTRA>
-254.594

>  <SCORE.INTRA.DIHEDRAL>
0.548972

>  <SCORE.INTRA.DIHEDRAL.0>
4.53132

>  <SCORE.INTRA.POLAR>
0

>  <SCORE.INTRA.POLAR.0>
0

>  <SCORE.INTRA.REPUL>
0

>  <SCORE.INTRA.REPUL.0>
0

>  <SCORE.INTRA.VDW>
-254.868

>  <SCORE.INTRA.VDW.0>
252.445

>  <SCORE.INTRA.norm>
-9.09263

>  <SCORE.RESTR>
0

>  <SCORE.RESTR.CAVITY>
0

>  <SCORE.RESTR.norm>
0

>  <SCORE.SYSTEM>
-7.16736

>  <SCORE.SYSTEM.CONST>
0

>  <SCORE.SYSTEM.DIHEDRAL>
6.01871

>  <SCORE.SYSTEM.POLAR>
-3.69691

>  <SCORE.SYSTEM.VDW>
2.39278

>  <SCORE.SYSTEM.norm>
-0.255977

>  <SCORE.heavy>
28

>  <SCORE.norm>
-9.75249

$$$$
F0545-1023
  rDOCK(R)          3D
libRbt.so/2013.1/901 2013/11/27
 28 31  0  0  0  0  0  0  0  0999 V2000
  -22.8038   25.4310  -12.1096 C   0  0  0  0  0  0
  -24.6048   24.7722  -12.0015 C   0  0  0  0  0  0
  -25.1568   22.9200  -13.2361 C   0  0  0  0  0  0
  -24.1994   21.3498  -12.3125 C   0  0  0  0  0  0
  -24.1960   21.4011  -10.4990 N   0  0  0  0  0  0
  -23.5909   22.8061   -9.7346 C   0  0  0  0  0  0
  -24.2208   24.4364  -10.1593 C   0  0  0  0  0  0
  -25.4203   20.9204   -9.8106 C   0  0  0  0  0  0
  -26.1681   21.6709   -9.1800 O   0  0  0  0  0  0
  -25.8733   19.4696  -10.1855 C   0  0  0  0  0  0
  -24.5290   18.1987   -9.8755 S   0  0  0  0  0  0
  -23.1246   18.5016  -10.9418 C   0  0  0  0  0  0
  -22.1716   19.4759  -10.7508 C   0  0  0  0  0  0
  -21.4074   19.6114  -11.9161 N   0  0  0  0  0  0
  -20.3441   20.5992  -12.0297 C   0  0  0  0  0  0
  -19.4922   20.3729  -13.2568 C   0  0  0  0  0  0
  -18.8031   19.1627  -13.4250 C   0  0  0  0  0  0
  -18.0197   18.9420  -14.5609 C   0  0  0  0  0  0
  -17.9048   19.9366  -15.5294 C   0  0  0  0  0  0
  -16.9087   19.6760  -16.9079 Cl  0  0  0  0  0  0
  -18.5854   21.1425  -15.3828 C   0  0  0  0  0  0
  -19.3769   21.3606  -14.2505 C   0  0  0  0  0  0
  -21.9692   18.8759  -12.9677 C   0  0  0  0  0  0
  -22.7540   17.8675  -12.1842 C   0  0  0  0  0  0
  -23.6469   16.7112  -13.0245 C   0  0  0  0  0  0
  -23.8515   16.5722  -14.9825 C   0  0  0  0  0  0
  -22.8541   17.9242  -15.7297 C   0  0  0  0  0  0
  -21.9480   18.9566  -14.6580 C   0  0  0  0  0  0
  1  2  1  0  0  0
  2  3  1  0  0  0
  2  7  1  0  0  0
  3  4  1  0  0  0
  4  5  1  0  0  0
  5  6  1  0  0  0
  5  8  1  0  0  0
  6  7  1  0  0  0
  8  9  2  0  0  0
  8 10  1  0  0  0
 10 11  1  0  0  0
 11 12  1  0  0  0
 12 13  2  0  0  0
 12 24  1  0  0  0
 13 14  1  0  0  0
 14 15  1  0  0  0
 14 23  1  0  0  0
 15 16  1  0  0  0
 16 17  2  0  0  0
 16 22  1  0  0  0
 17 18  1  0  0  0
 18 19  2  0  0  0
 19 20  1  0  0  0
 19 21  1  0  0  0
 21 22  2  0  0  0
 23 24  2  0  0  0
 23 28  1  0  0  0
 24 25  1  0  0  0
 25 26  2  0  0  0
 26 27  1  0  0  0
 27 28  2  0  0  0
M  END
>  <CHROM.0>
38.93525401,-72.27716862,74.52804027,60.71342324,-31.01185187,-175.41372996
81.92751282,-159.24778201

>  <CHROM.1>
-112.13814615,56.77932546,-64.39480886,77.63532388,168.61057479,-59.61447705
-22.15877394,20.26298134,-12.61972447,-2.84414669,-0.64024146,-2.99992103

>  <Name>
F0545-1023

>  <RI>
4.13433e+07

>  <Rbt.Current_Directory>
/home/adria/Escritorio/rDock_CMTR_LC/2pxcA_model/inputs_sah

>  <Rbt.Executable>
rbdock ($Id: //depot/dev/client3/rdock/2013.1/src/exe/rbdock.cxx#4 $)

>  <Rbt.Library>
libRbt.so (2013.1, Build901 2013/11/27)

>  <Rbt.Parameter_File>
/home/adria/Escritorio/rDock_2013.1_src/data/scripts/dock.prm

>  <Rbt.Receptor>
sah_rdock.prm

>  <SCORE>
-266.545

>  <SCORE.INTER>
-9.78195

>  <SCORE.INTER.CONST>
1

>  <SCORE.INTER.POLAR>
0

>  <SCORE.INTER.REPUL>
0

>  <SCORE.INTER.ROT>
6

>  <SCORE.INTER.VDW>
-21.182

>  <SCORE.INTER.norm>
-0.349355

>  <SCORE.INTRA>
-253.471

>  <SCORE.INTRA.DIHEDRAL>
4.87184

>  <SCORE.INTRA.DIHEDRAL.0>
4.53132

>  <SCORE.INTRA.POLAR>
0

>  <SCORE.INTRA.POLAR.0>
0

>  <SCORE.INTRA.REPUL>
0

>  <SCORE.INTRA.REPUL.0>
0

>  <SCORE.INTRA.VDW>
-255.907

>  <SCORE.INTRA.VDW.0>
252.445

>  <SCORE.INTRA.norm>
-9.05252

>  <SCORE.RESTR>
0

>  <SCORE.RESTR.CAVITY>
0

>  <SCORE.RESTR.norm>
0

>  <SCORE.SYSTEM>
-3.29242

>  <SCORE.SYSTEM.CONST>
0

>  <SCORE.SYSTEM.DIHEDRAL>
8.31944

>  <SCORE.SYSTEM.POLAR>
-3.94706

>  <SCORE.SYSTEM.REPUL>
0.163812

>  <SCORE.SYSTEM.VDW>
5.14879

>  <SCORE.SYSTEM.norm>
-0.117586

>  <SCORE.heavy>
28

>  <SCORE.norm>
-9.51947

$$$$
F0545-1023
  rDOCK(R)          3D
libRbt.so/2013.1/901 2013/11/27
 28 31  0  0  0  0  0  0  0  0999 V2000
  -25.8403   23.3910   -8.6834 C   0  0  0  0  0  0
  -24.0114   22.8596   -8.4338 C   0  0  0  0  0  0
  -23.3103   20.9021   -9.4014 C   0  0  0  0  0  0
  -23.2444   21.2909  -11.4213 C   0  0  0  0  0  0
  -22.6200   22.9324  -11.8758 N   0  0  0  0  0  0
  -23.3738   24.3012  -11.1811 C   0  0  0  0  0  0
  -23.5664   24.4484   -9.3989 C   0  0  0  0  0  0
  -21.1461   23.1074  -11.9022 C   0  0  0  0  0  0
  -20.5310   23.7106  -11.0201 O   0  0  0  0  0  0
  -20.3854   22.2234  -12.9465 C   0  0  0  0  0  0
  -19.2694   20.9553  -12.1312 S   0  0  0  0  0  0
  -19.5933   19.3231  -12.7886 C   0  0  0  0  0  0
  -18.9908   18.7740  -13.8973 C   0  0  0  0  0  0
  -19.6904   17.6244  -14.2835 N   0  0  0  0  0  0
  -19.3109   16.8485  -15.4554 C   0  0  0  0  0  0
  -18.0728   17.4015  -16.1216 C   0  0  0  0  0  0
  -18.1281   18.6193  -16.8157 C   0  0  0  0  0  0
  -16.9856   19.1419  -17.4276 C   0  0  0  0  0  0
  -15.7828   18.4423  -17.3656 C   0  0  0  0  0  0
  -14.3876   19.0700  -18.1528 Cl  0  0  0  0  0  0
  -15.7067   17.2346  -16.6769 C   0  0  0  0  0  0
  -16.8475   16.7153  -16.0564 C   0  0  0  0  0  0
  -20.8865   17.5048  -13.5640 C   0  0  0  0  0  0
  -20.5425   18.3249  -12.3575 C   0  0  0  0  0  0
  -21.7000   18.5003  -11.1451 C   0  0  0  0  0  0
  -23.5436   17.7961  -11.1630 C   0  0  0  0  0  0
  -23.7581   16.8770  -12.7411 C   0  0  0  0  0  0
  -22.3884   16.7653  -13.8120 C   0  0  0  0  0  0
  1  2  1  0  0  0
  2  3  1  0  0  0
  2  7  1  0  0  0
  3  4  1  0  0  0
  4  5  1  0  0  0
  5  6  1  0  0  0
  5  8  1  0  0  0
  6  7  1  0  0  0
  8  9  2  0  0  0
  8 10  1  0  0  0
 10 11  1  0  0  0
 11 12  1  0  0  0
 12 13  2  0  0  0
 12 24  1  0  0  0
 13 14  1  0  0  0
 14 15  1  0  0  0
 14 23  1  0  0  0
 15 16  1  0  0  0
 16 17  2  0  0  0
 16 22  1  0  0  0
 17 18  1  0  0  0
 18 19  2  0  0  0
 19 20  1  0  0  0
 19 21  1  0  0  0
 21 22  2  0  0  0
 23 24  2  0  0  0
 23 28  1  0  0  0
 24 25  1  0  0  0
 25 26  2  0  0  0
 26 27  1  0  0  0
 27 28  2  0  0  0
M  END
>  <CHROM.0>
-177.60605959,-76.90123898,73.03900767,61.22416829,-30.90957042,179.25779771
84.41142678,-163.79689252

>  <CHROM.1>
-104.70168069,-114.03524530,128.49498447,88.28803525,2.60716681,-70.86039351
-20.17038075,19.92211466,-13.30301078,-2.53079933,-0.63038782,-2.83219692

>  <Name>
F0545-1023

>  <RI>
4.13433e+07

>  <Rbt.Current_Directory>
/home/adria/Escritorio/rDock_CMTR_LC/2pxcA_model/inputs_sah

>  <Rbt.Executable>
rbdock ($Id: //depot/dev/client3/rdock/2013.1/src/exe/rbdock.cxx#4 $)

>  <Rbt.Library>
libRbt.so (2013.1, Build901 2013/11/27)

>  <Rbt.Parameter_File>
/home/adria/Escritorio/rDock_2013.1_src/data/scripts/dock.prm

>  <Rbt.Receptor>
sah_rdock.prm

>  <SCORE>
-273.364

>  <SCORE.INTER>
-15.3251

>  <SCORE.INTER.CONST>
1

>  <SCORE.INTER.POLAR>
0

>  <SCORE.INTER.REPUL>
0.0193625

>  <SCORE.INTER.ROT>
6

>  <SCORE.INTER.VDW>
-26.8219

>  <SCORE.INTER.norm>
-0.547325

>  <SCORE.INTRA>
-250.709

>  <SCORE.INTRA.DIHEDRAL>
6.64786

>  <SCORE.INTRA.DIHEDRAL.0>
4.53132

>  <SCORE.INTRA.POLAR>
0

>  <SCORE.INTRA.POLAR.0>
0

>  <SCORE.INTRA.REPUL>
0

>  <SCORE.INTRA.REPUL.0>
0

>  <SCORE.INTRA.VDW>
-254.033

>  <SCORE.INTRA.VDW.0>
252.445

>  <SCORE.INTRA.norm>
-8.9539

>  <SCORE.RESTR>
0

>  <SCORE.RESTR.CAVITY>
0

>  <SCORE.RESTR.norm>
0

>  <SCORE.SYSTEM>
-7.32917

>  <SCORE.SYSTEM.CONST>
0

>  <SCORE.SYSTEM.DIHEDRAL>
6.84357

>  <SCORE.SYSTEM.POLAR>
-4.10393

>  <SCORE.SYSTEM.REPUL>
0.0447456

>  <SCORE.SYSTEM.VDW>
2.9787

>  <SCORE.SYSTEM.norm>
-0.261756

>  <SCORE.heavy>
28

>  <SCORE.norm>
-9.76299

$$$$
F0545-1023
  rDOCK(R)          3D
libRbt.so/2013.1/901 2013/11/27
 28 31  0  0  0  0  0  0  0  0999 V2000
  -25.0819   21.1927   -9.5838 C   0  0  0  0  0  0
  -24.1405   21.4712  -11.2347 C   0  0  0  0  0  0
  -25.1953   22.6452  -12.8987 C   0  0  0  0  0  0
  -25.2419   24.5941  -12.2390 C   0  0  0  0  0  0
  -23.7450   25.1604  -11.3846 N   0  0  0  0  0  0
  -23.1869   24.2493  -10.0493 C   0  0  0  0  0  0
  -22.8967   22.4800  -10.1910 C   0  0  0  0  0  0
  -22.6061   25.5877  -12.2355 C   0  0  0  0  0  0
  -22.0099   26.6532  -12.0644 O   0  0  0  0  0  0
  -22.0088   24.4764  -13.1622 C   0  0  0  0  0  0
  -20.6166   23.5291  -12.3358 S   0  0  0  0  0  0
  -20.0948   22.1612  -13.3643 C   0  0  0  0  0  0
  -19.6455   22.2623  -14.6612 C   0  0  0  0  0  0
  -19.6104   20.9880  -15.2402 N   0  0  0  0  0  0
  -19.2143   20.7818  -16.6258 C   0  0  0  0  0  0
  -17.9343   19.9867  -16.7346 C   0  0  0  0  0  0
  -16.7218   20.5355  -16.2914 C   0  0  0  0  0  0
  -15.5348   19.8037  -16.3808 C   0  0  0  0  0  0
  -15.5476   18.5239  -16.9304 C   0  0  0  0  0  0
  -14.0779   17.6408  -17.0741 Cl  0  0  0  0  0  0
  -16.7420   17.9600  -17.3710 C   0  0  0  0  0  0
  -17.9320   18.6883  -17.2736 C   0  0  0  0  0  0
  -20.2283   20.0461  -14.4075 C   0  0  0  0  0  0
  -20.0954   20.7446  -13.0880 C   0  0  0  0  0  0
  -20.7122   19.9923  -11.7117 C   0  0  0  0  0  0
  -21.6916   18.2804  -11.6414 C   0  0  0  0  0  0
  -21.7785   17.6339  -13.3606 C   0  0  0  0  0  0
  -20.9976   18.5534  -14.6177 C   0  0  0  0  0  0
  1  2  1  0  0  0
  2  3  1  0  0  0
  2  7  1  0  0  0
  3  4  1  0  0  0
  4  5  1  0  0  0
  5  6  1  0  0  0
  5  8  1  0  0  0
  6  7  1  0  0  0
  8  9  2  0  0  0
  8 10  1  0  0  0
 10 11  1  0  0  0
 11 12  1  0  0  0
 12 13  2  0  0  0
 12 24  1  0  0  0
 13 14  1  0  0  0
 14 15  1  0  0  0
 14 23  1  0  0  0
 15 16  1  0  0  0
 16 17  2  0  0  0
 16 22  1  0  0  0
 17 18  1  0  0  0
 18 19  2  0  0  0
 19 20  1  0  0  0
 19 21  1  0  0  0
 21 22  2  0  0  0
 23 24  2  0  0  0
 23 28  1  0  0  0
 24 25  1  0  0  0
 25 26  2  0  0  0
 26 27  1  0  0  0
 27 28  2  0  0  0
M  END
>  <CHROM.0>
-177.60372925,-71.07020354,75.00682712,-60.18567394,-31.46629485,61.32008974
-37.85372893,-160.03148993

>  <CHROM.1>
130.72393540,-90.58518036,173.77793723,57.23412075,114.97800213,-67.30953601
-20.28786421,21.28732811,-13.77578318,2.62345321,0.61831657,0.01413413

>  <Name>
F0545-1023

>  <RI>
4.13433e+07

>  <Rbt.Current_Directory>
/home/adria/Escritorio/rDock_CMTR_LC/2pxcA_model/inputs_sah

>  <Rbt.Executable>
rbdock ($Id: //depot/dev/client3/rdock/2013.1/src/exe/rbdock.cxx#4 $)

>  <Rbt.Library>
libRbt.so (2013.1, Build901 2013/11/27)

>  <Rbt.Parameter_File>
/home/adria/Escritorio/rDock_2013.1_src/data/scripts/dock.prm

>  <Rbt.Receptor>
sah_rdock.prm

>  <SCORE>
-284.125

>  <SCORE.INTER>
-22.4533

>  <SCORE.INTER.CONST>
1

>  <SCORE.INTER.POLAR>
-2.73465

>  <SCORE.INTER.REPUL>
0

>  <SCORE.INTER.ROT>
6

>  <SCORE.INTER.VDW>
-24.5555

>  <SCORE.INTER.norm>
-0.801903

>  <SCORE.INTRA>
-254.551

>  <SCORE.INTRA.DIHEDRAL>
2.78527

>  <SCORE.INTRA.DIHEDRAL.0>
4.53132

>  <SCORE.INTRA.POLAR>
0

>  <SCORE.INTRA.POLAR.0>
0

>  <SCORE.INTRA.REPUL>
0

>  <SCORE.INTRA.REPUL.0>
0

>  <SCORE.INTRA.VDW>
-255.944

>  <SCORE.INTRA.VDW.0>
252.445

>  <SCORE.INTRA.norm>
-9.09112

>  <SCORE.RESTR>
0

>  <SCORE.RESTR.CAVITY>
0

>  <SCORE.RESTR.norm>
0

>  <SCORE.SYSTEM>
-7.12025

>  <SCORE.SYSTEM.CONST>
0

>  <SCORE.SYSTEM.DIHEDRAL>
6.11287

>  <SCORE.SYSTEM.POLAR>
-3.99296

>  <SCORE.SYSTEM.REPUL>
0.0349088

>  <SCORE.SYSTEM.VDW>
3.22483

>  <SCORE.SYSTEM.norm>
-0.254295

>  <SCORE.heavy>
28

>  <SCORE.norm>
-10.1473

$$$$
F0545-1023
  rDOCK(R)          3D
libRbt.so/2013.1/901 2013/11/27
 28 31  0  0  0  0  0  0  0  0999 V2000
  -25.0336   16.9496  -12.7196 C   0  0  0  0  0  0
  -23.1154   16.8533  -12.6933 C   0  0  0  0  0  0
  -21.9672   17.6128  -14.5275 C   0  0  0  0  0  0
  -22.1727   19.6601  -14.4843 C   0  0  0  0  0  0
  -22.0760   20.4153  -12.8377 N   0  0  0  0  0  0
  -23.1295   19.8342  -11.6224 C   0  0  0  0  0  0
  -23.2153   18.0807  -11.2313 C   0  0  0  0  0  0
  -20.7187   20.6466  -12.2828 C   0  0  0  0  0  0
  -20.4887   21.4929  -11.4162 O   0  0  0  0  0  0
  -19.6563   19.5517  -12.6339 C   0  0  0  0  0  0
  -18.2719   20.2184  -13.7097 S   0  0  0  0  0  0
  -18.1652   19.2916  -15.2364 C   0  0  0  0  0  0
  -18.9453   18.2081  -15.5698 C   0  0  0  0  0  0
  -18.3941   17.5658  -16.6852 N   0  0  0  0  0  0
  -18.9799   16.3566  -17.2457 C   0  0  0  0  0  0
  -18.4789   15.1123  -16.5506 C   0  0  0  0  0  0
  -17.8832   14.0807  -17.2912 C   0  0  0  0  0  0
  -17.4096   12.9300  -16.6551 C   0  0  0  0  0  0
  -17.5441   12.7939  -15.2754 C   0  0  0  0  0  0
  -16.9946   11.3593  -14.5007 Cl  0  0  0  0  0  0
  -18.1278   13.8094  -14.5224 C   0  0  0  0  0  0
  -18.5938   14.9652  -15.1572 C   0  0  0  0  0  0
  -17.1299   18.0889  -16.9861 C   0  0  0  0  0  0
  -17.2516   19.4379  -16.3442 C   0  0  0  0  0  0
  -15.9394   20.4923  -16.4285 C   0  0  0  0  0  0
  -14.1751   20.1186  -17.2300 C   0  0  0  0  0  0
  -14.2364   18.4090  -17.9042 C   0  0  0  0  0  0
  -15.7353   17.5317  -17.7663 C   0  0  0  0  0  0
  1  2  1  0  0  0
  2  3  1  0  0  0
  2  7  1  0  0  0
  3  4  1  0  0  0
  4  5  1  0  0  0
  5  6  1  0  0  0
  5  8  1  0  0  0
  6  7  1  0  0  0
  8  9  2  0  0  0
  8 10  1  0  0  0
 10 11  1  0  0  0
 11 12  1  0  0  0
 12 13  2  0  0  0
 12 24  1  0  0  0
 13 14  1  0  0  0
 14 15  1  0  0  0
 14 23  1  0  0  0
 15 16  1  0  0  0
 16 17  2  0  0  0
 16 22  1  0  0  0
 17 18  1  0  0  0
 18 19  2  0  0  0
 19 20  1  0  0  0
 19 21  1  0  0  0
 21 22  2  0  0  0
 23 24  2  0  0  0
 23 28  1  0  0  0
 24 25  1  0  0  0
 25 26  2  0  0  0
 26 27  1  0  0  0
 27 28  2  0  0  0
M  END
>  <CHROM.0>
177.94185153,65.47732013,-9.91727055,61.90251750,167.88783492,-176.74895835
83.05557355,-160.74765210

>  <CHROM.1>
156.68582861,114.97869312,-122.15557527,-2.32028829,-85.92482709,-124.60509997
-19.00967923,17.39784991,-14.76999110,2.42498122,0.58027748,0.05893474

>  <Name>
F0545-1023

>  <RI>
4.13433e+07

>  <Rbt.Current_Directory>
/home/adria/Escritorio/rDock_CMTR_LC/2pxcA_model/inputs_sah

>  <Rbt.Executable>
rbdock ($Id: //depot/dev/client3/rdock/2013.1/src/exe/rbdock.cxx#4 $)

>  <Rbt.Library>
libRbt.so (2013.1, Build901 2013/11/27)

>  <Rbt.Parameter_File>
/home/adria/Escritorio/rDock_2013.1_src/data/scripts/dock.prm

>  <Rbt.Receptor>
sah_rdock.prm

>  <SCORE>
-266.482

>  <SCORE.INTER>
-11.8272

>  <SCORE.INTER.CONST>
1

>  <SCORE.INTER.POLAR>
0

>  <SCORE.INTER.REPUL>
0.0437584

>  <SCORE.INTER.ROT>
6

>  <SCORE.INTER.VDW>
-23.446

>  <SCORE.INTER.norm>
-0.422399

>  <SCORE.INTRA>
-253.161

>  <SCORE.INTRA.DIHEDRAL>
3.85354

>  <SCORE.INTRA.DIHEDRAL.0>
4.53132

>  <SCORE.INTRA.POLAR>
0

>  <SCORE.INTRA.POLAR.0>
0

>  <SCORE.INTRA.REPUL>
0

>  <SCORE.INTRA.REPUL.0>
0

>  <SCORE.INTRA.VDW>
-255.088

>  <SCORE.INTRA.VDW.0>
252.445

>  <SCORE.INTRA.norm>
-9.04148

>  <SCORE.RESTR>
0.0457749

>  <SCORE.RESTR.CAVITY>
0.0457749

>  <SCORE.RESTR.norm>
0.00163482

>  <SCORE.SYSTEM>
-1.53912

>  <SCORE.SYSTEM.CONST>
0

>  <SCORE.SYSTEM.DIHEDRAL>
5.95661

>  <SCORE.SYSTEM.POLAR>
-4.14437

>  <SCORE.SYSTEM.VDW>
9.57343

>  <SCORE.SYSTEM.norm>
-0.0549685

>  <SCORE.heavy>
28

>  <SCORE.norm>
-9.51721

$$$$
F0545-1023
  rDOCK(R)          3D
libRbt.so/2013.1/901 2013/11/27
 28 31  0  0  0  0  0  0  0  0999 V2000
  -14.9840   15.6430  -18.1365 C   0  0  0  0  0  0
  -15.3608   16.4614  -16.4401 C   0  0  0  0  0  0
  -16.4551   18.4769  -16.4288 C   0  0  0  0  0  0
  -18.3855   18.0470  -16.9982 C   0  0  0  0  0  0
  -19.0718   16.5117  -16.3179 N   0  0  0  0  0  0
  -18.1995   15.0615  -16.5638 C   0  0  0  0  0  0
  -16.4639   14.9357  -16.1091 C   0  0  0  0  0  0
  -19.6060   16.5693  -14.9340 C   0  0  0  0  0  0
  -19.0783   15.9755  -13.9911 O   0  0  0  0  0  0
  -20.6917   17.6682  -14.6806 C   0  0  0  0  0  0
  -20.6012   18.3756  -12.9457 S   0  0  0  0  0  0
  -21.9643   19.4977  -12.6563 C   0  0  0  0  0  0
  -23.2650   19.2955  -13.0576 C   0  0  0  0  0  0
  -23.9820   20.4908  -12.9257 N   0  0  0  0  0  0
  -25.3808   20.5972  -13.3146 C   0  0  0  0  0  0
  -25.5350   21.0001  -14.7625 C   0  0  0  0  0  0
  -25.9836   22.2872  -15.0938 C   0  0  0  0  0  0
  -26.1210   22.6707  -16.4305 C   0  0  0  0  0  0
  -25.8280   21.7642  -17.4467 C   0  0  0  0  0  0
  -26.0351   22.2273  -19.0908 Cl  0  0  0  0  0  0
  -25.3764   20.4838  -17.1379 C   0  0  0  0  0  0
  -25.2299   20.1023  -15.8004 C   0  0  0  0  0  0
  -23.1223   21.5564  -12.6295 C   0  0  0  0  0  0
  -21.9728   20.8003  -12.0347 C   0  0  0  0  0  0
  -20.6280   21.6653  -11.5021 C   0  0  0  0  0  0
  -20.3450   23.6132  -11.6463 C   0  0  0  0  0  0
  -21.8433   24.3217  -12.4426 C   0  0  0  0  0  0
  -23.1465   23.2355  -12.8395 C   0  0  0  0  0  0
  1  2  1  0  0  0
  2  3  1  0  0  0
  2  7  1  0  0  0
  3  4  1  0  0  0
  4  5  1  0  0  0
  5  6  1  0  0  0
  5  8  1  0  0  0
  6  7  1  0  0  0
  8  9  2  0  0  0
  8 10  1  0  0  0
 10 11  1  0  0  0
 11 12  1  0  0  0
 12 13  2  0  0  0
 12 24  1  0  0  0
 13 14  1  0  0  0
 14 15  1  0  0  0
 14 23  1  0  0  0
 15 16  1  0  0  0
 16 17  2  0  0  0
 16 22  1  0  0  0
 17 18  1  0  0  0
 18 19  2  0  0  0
 19 20  1  0  0  0
 19 21  1  0  0  0
 21 22  2  0  0  0
 23 24  2  0  0  0
 23 28  1  0  0  0
 24 25  1  0  0  0
 25 26  2  0  0  0
 26 27  1  0  0  0
 27 28  2  0  0  0
M  END
>  <CHROM.0>
-59.15299561,-166.93158091,-126.93784394,149.07203907,-29.70562462,-59.41362824
-35.51507604,-159.64139891

>  <CHROM.1>
-112.56039117,-146.45324791,-174.12233575,41.23442072,-89.40581316,-108.12572942
-21.68470645,19.61236250,-14.97934238,0.27912347,0.56940957,-1.96773216

>  <Name>
F0545-1023

>  <RI>
4.13433e+07

>  <Rbt.Current_Directory>
/home/adria/Escritorio/rDock_CMTR_LC/2pxcA_model/inputs_sah

>  <Rbt.Executable>
rbdock ($Id: //depot/dev/client3/rdock/2013.1/src/exe/rbdock.cxx#4 $)

>  <Rbt.Library>
libRbt.so (2013.1, Build901 2013/11/27)

>  <Rbt.Parameter_File>
/home/adria/Escritorio/rDock_2013.1_src/data/scripts/dock.prm

>  <Rbt.Receptor>
sah_rdock.prm

>  <SCORE>
-268.63

>  <SCORE.INTER>
-13.3695

>  <SCORE.INTER.CONST>
1

>  <SCORE.INTER.POLAR>
-0.60363

>  <SCORE.INTER.REPUL>
0.0144523

>  <SCORE.INTER.ROT>
6

>  <SCORE.INTER.VDW>
-22.7894

>  <SCORE.INTER.norm>
-0.477483

>  <SCORE.INTRA>
-252.747

>  <SCORE.INTRA.DIHEDRAL>
3.40498

>  <SCORE.INTRA.DIHEDRAL.0>
4.53132

>  <SCORE.INTRA.POLAR>
0

>  <SCORE.INTRA.POLAR.0>
0

>  <SCORE.INTRA.REPUL>
0

>  <SCORE.INTRA.REPUL.0>
0

>  <SCORE.INTRA.VDW>
-254.449

>  <SCORE.INTRA.VDW.0>
252.445

>  <SCORE.INTRA.norm>
-9.02667

>  <SCORE.RESTR>
0.0221516

>  <SCORE.RESTR.CAVITY>
0.0221516

>  <SCORE.RESTR.norm>
0.000791129

>  <SCORE.SYSTEM>
-2.53561

>  <SCORE.SYSTEM.CONST>
0

>  <SCORE.SYSTEM.DIHEDRAL>
13.5962

>  <SCORE.SYSTEM.POLAR>
-4.25367

>  <SCORE.SYSTEM.VDW>
5.12877

>  <SCORE.SYSTEM.norm>
-0.0905575

>  <SCORE.heavy>
28

>  <SCORE.norm>
-9.59392

$$$$
F0545-1023
  rDOCK(R)          3D
libRbt.so/2013.1/901 2013/11/27
 28 31  0  0  0  0  0  0  0  0999 V2000
  -27.1148   20.7619  -12.2338 C   0  0  0  0  0  0
  -26.7276   22.4016  -13.1563 C   0  0  0  0  0  0
  -26.4753   24.3113  -11.9117 C   0  0  0  0  0  0
  -24.6827   24.0819  -10.9270 C   0  0  0  0  0  0
  -23.3556   23.3169  -11.8990 N   0  0  0  0  0  0
  -23.6629   21.8008  -12.6279 C   0  0  0  0  0  0
  -25.0976   21.5541  -13.6842 C   0  0  0  0  0  0
  -22.6093   24.2002  -12.8300 C   0  0  0  0  0  0
  -23.1703   24.9925  -13.5900 O   0  0  0  0  0  0
  -21.0673   24.2907  -12.5756 C   0  0  0  0  0  0
  -20.3740   22.7195  -11.8214 S   0  0  0  0  0  0
  -20.0239   21.5153  -13.0976 C   0  0  0  0  0  0
  -19.5096   21.7968  -14.3426 C   0  0  0  0  0  0
  -19.6449   20.6719  -15.1652 N   0  0  0  0  0  0
  -19.2263   20.6819  -16.5594 C   0  0  0  0  0  0
  -17.9307   19.9325  -16.7651 C   0  0  0  0  0  0
  -16.7213   20.4724  -16.3030 C   0  0  0  0  0  0
  -15.5196   19.7819  -16.4818 C   0  0  0  0  0  0
  -15.5152   18.5543  -17.1399 C   0  0  0  0  0  0
  -14.0287   17.7252  -17.3922 Cl  0  0  0  0  0  0
  -16.7062   17.9997  -17.6012 C   0  0  0  0  0  0
  -17.9105   18.6859  -17.4146 C   0  0  0  0  0  0
  -20.4344   19.6947  -14.5455 C   0  0  0  0  0  0
  -20.2527   20.0903  -13.1112 C   0  0  0  0  0  0
  -21.0353   19.1896  -11.9209 C   0  0  0  0  0  0
  -22.2669   17.6742  -12.2067 C   0  0  0  0  0  0
  -22.3782   17.4001  -14.0215 C   0  0  0  0  0  0
  -21.4131   18.4133  -15.0596 C   0  0  0  0  0  0
  1  2  1  0  0  0
  2  3  1  0  0  0
  2  7  1  0  0  0
  3  4  1  0  0  0
  4  5  1  0  0  0
  5  6  1  0  0  0
  5  8  1  0  0  0
  6  7  1  0  0  0
  8  9  2  0  0  0
  8 10  1  0  0  0
 10 11  1  0  0  0
 11 12  1  0  0  0
 12 13  2  0  0  0
 12 24  1  0  0  0
 13 14  1  0  0  0
 14 15  1  0  0  0
 14 23  1  0  0  0
 15 16  1  0  0  0
 16 17  2  0  0  0
 16 22  1  0  0  0
 17 18  1  0  0  0
 18 19  2  0  0  0
 19 20  1  0  0  0
 19 21  1  0  0  0
 21 22  2  0  0  0
 23 24  2  0  0  0
 23 28  1  0  0  0
 24 25  1  0  0  0
 25 26  2  0  0  0
 26 27  1  0  0  0
 27 28  2  0  0  0
M  END
>  <CHROM.0>
-174.12214176,-74.17976627,-6.73403889,-58.69092999,167.86421697,62.16127091
-156.69975585,-160.08443390

>  <CHROM.1>
-46.31751927,29.46430412,83.69175140,38.15492876,104.56450573,-71.58912323
-20.59842941,20.86120893,-14.18577829,2.60822764,0.35091753,0.30375867

>  <Name>
F0545-1023

>  <RI>
4.13433e+07

>  <Rbt.Current_Directory>
/home/adria/Escritorio/rDock_CMTR_LC/2pxcA_model/inputs_sah

>  <Rbt.Executable>
rbdock ($Id: //depot/dev/client3/rdock/2013.1/src/exe/rbdock.cxx#4 $)

>  <Rbt.Library>
libRbt.so (2013.1, Build901 2013/11/27)

>  <Rbt.Parameter_File>
/home/adria/Escritorio/rDock_2013.1_src/data/scripts/dock.prm

>  <Rbt.Receptor>
sah_rdock.prm

>  <SCORE>
-272.627

>  <SCORE.INTER>
-15.5593

>  <SCORE.INTER.CONST>
1

>  <SCORE.INTER.POLAR>
-0.874187

>  <SCORE.INTER.REPUL>
0

>  <SCORE.INTER.ROT>
6

>  <SCORE.INTER.VDW>
-23.9871

>  <SCORE.INTER.norm>
-0.55569

>  <SCORE.INTRA>
-255.144

>  <SCORE.INTRA.DIHEDRAL>
1.77147

>  <SCORE.INTRA.DIHEDRAL.0>
4.53132

>  <SCORE.INTRA.POLAR>
0

>  <SCORE.INTRA.POLAR.0>
0

>  <SCORE.INTRA.REPUL>
0

>  <SCORE.INTRA.REPUL.0>
0

>  <SCORE.INTRA.VDW>
-256.029

>  <SCORE.INTRA.VDW.0>
252.445

>  <SCORE.INTRA.norm>
-9.11227

>  <SCORE.RESTR>
0

>  <SCORE.RESTR.CAVITY>
0

>  <SCORE.RESTR.norm>
0

>  <SCORE.SYSTEM>
-1.92455

>  <SCORE.SYSTEM.CONST>
0

>  <SCORE.SYSTEM.DIHEDRAL>
7.06726

>  <SCORE.SYSTEM.POLAR>
-4.59106

>  <SCORE.SYSTEM.REPUL>
0.0405739

>  <SCORE.SYSTEM.VDW>
9.94855

>  <SCORE.SYSTEM.norm>
-0.0687341

>  <SCORE.heavy>
28

>  <SCORE.norm>
-9.7367

$$$$
F0545-1023
  rDOCK(R)          3D
libRbt.so/2013.1/901 2013/11/27
 28 31  0  0  0  0  0  0  0  0999 V2000
  -14.3546   13.5382  -19.5726 C   0  0  0  0  0  0
  -16.0082   12.9614  -18.7838 C   0  0  0  0  0  0
  -16.0026   12.3664  -16.5690 C   0  0  0  0  0  0
  -15.7682   14.1308  -15.5359 C   0  0  0  0  0  0
  -16.6777   15.5499  -16.2069 N   0  0  0  0  0  0
  -16.4348   15.9578  -17.8498 C   0  0  0  0  0  0
  -16.6350   14.7300  -19.1488 C   0  0  0  0  0  0
  -18.1150   15.6564  -15.8512 C   0  0  0  0  0  0
  -18.7915   14.6826  -15.5136 O   0  0  0  0  0  0
  -18.6442   17.1132  -15.6316 C   0  0  0  0  0  0
  -20.5144   17.1827  -15.5057 S   0  0  0  0  0  0
  -21.0092   17.9491  -13.9666 C   0  0  0  0  0  0
  -21.9120   17.4279  -13.0681 C   0  0  0  0  0  0
  -22.2712   18.4174  -12.1451 N   0  0  0  0  0  0
  -23.2476   18.1722  -11.0934 C   0  0  0  0  0  0
  -23.7072   19.4544  -10.4399 C   0  0  0  0  0  0
  -23.0290   19.9596   -9.3208 C   0  0  0  0  0  0
  -23.4425   21.1493   -8.7154 C   0  0  0  0  0  0
  -24.5485   21.8341   -9.2134 C   0  0  0  0  0  0
  -25.0779   23.2781   -8.4421 Cl  0  0  0  0  0  0
  -25.2315   21.3513  -10.3266 C   0  0  0  0  0  0
  -24.8127   20.1655  -10.9386 C   0  0  0  0  0  0
  -21.7720   19.6666  -12.5355 C   0  0  0  0  0  0
  -20.6358   19.2268  -13.4087 C   0  0  0  0  0  0
  -19.6859   20.4050  -14.1503 C   0  0  0  0  0  0
  -19.9500   22.3590  -14.0658 C   0  0  0  0  0  0
  -21.4124   22.6631  -12.9934 C   0  0  0  0  0  0
  -22.1939   21.2840  -12.2703 C   0  0  0  0  0  0
  1  2  1  0  0  0
  2  3  1  0  0  0
  2  7  1  0  0  0
  3  4  1  0  0  0
  4  5  1  0  0  0
  5  6  1  0  0  0
  5  8  1  0  0  0
  6  7  1  0  0  0
  8  9  2  0  0  0
  8 10  1  0  0  0
 10 11  1  0  0  0
 11 12  1  0  0  0
 12 13  2  0  0  0
 12 24  1  0  0  0
 13 14  1  0  0  0
 14 15  1  0  0  0
 14 23  1  0  0  0
 15 16  1  0  0  0
 16 17  2  0  0  0
 16 22  1  0  0  0
 17 18  1  0  0  0
 18 19  2  0  0  0
 19 20  1  0  0  0
 19 21  1  0  0  0
 21 22  2  0  0  0
 23 24  2  0  0  0
 23 28  1  0  0  0
 24 25  1  0  0  0
 25 26  2  0  0  0
 26 27  1  0  0  0
 27 28  2  0  0  0
M  END
>  <CHROM.0>
-60.88793208,66.33978690,75.03837145,63.61681952,168.33360380,58.72758074
-157.12207546,-160.96380388

>  <CHROM.1>
-23.36693331,169.27874239,123.62650319,-129.08874331,-166.52759640,-90.23171969
-20.57918093,18.29246354,-13.58086452,-0.53171328,0.82437065,-0.08133275

>  <Name>
F0545-1023

>  <RI>
4.13433e+07

>  <Rbt.Current_Directory>
/home/adria/Escritorio/rDock_CMTR_LC/2pxcA_model/inputs_sah

>  <Rbt.Executable>
rbdock ($Id: //depot/dev/client3/rdock/2013.1/src/exe/rbdock.cxx#4 $)

>  <Rbt.Library>
libRbt.so (2013.1, Build901 2013/11/27)

>  <Rbt.Parameter_File>
/home/adria/Escritorio/rDock_2013.1_src/data/scripts/dock.prm

>  <Rbt.Receptor>
sah_rdock.prm

>  <SCORE>
-264.4

>  <SCORE.INTER>
-9.48793

>  <SCORE.INTER.CONST>
1

>  <SCORE.INTER.POLAR>
0

>  <SCORE.INTER.REPUL>
0

>  <SCORE.INTER.ROT>
6

>  <SCORE.INTER.VDW>
-20.8879

>  <SCORE.INTER.norm>
-0.338855

>  <SCORE.INTRA>
-252.27

>  <SCORE.INTRA.DIHEDRAL>
4.68565

>  <SCORE.INTRA.DIHEDRAL.0>
4.53132

>  <SCORE.INTRA.POLAR>
0

>  <SCORE.INTRA.POLAR.0>
0

>  <SCORE.INTRA.REPUL>
0

>  <SCORE.INTRA.REPUL.0>
0

>  <SCORE.INTRA.VDW>
-254.613

>  <SCORE.INTRA.VDW.0>
252.445

>  <SCORE.INTRA.norm>
-9.00965

>  <SCORE.RESTR>
0

>  <SCORE.RESTR.CAVITY>
0

>  <SCORE.RESTR.norm>
0

>  <SCORE.SYSTEM>
-2.64155

>  <SCORE.SYSTEM.CONST>
0

>  <SCORE.SYSTEM.DIHEDRAL>
3.1046

>  <SCORE.SYSTEM.POLAR>
-3.7213

>  <SCORE.SYSTEM.VDW>
8.45856

>  <SCORE.SYSTEM.norm>
-0.0943412

>  <SCORE.heavy>
28

>  <SCORE.norm>
-9.44285

$$$$
F0545-1023
  rDOCK(R)          3D
libRbt.so/2013.1/901 2013/11/27
 28 31  0  0  0  0  0  0  0  0999 V2000
  -27.0614   23.5779   -9.5339 C   0  0  0  0  0  0
  -25.2227   24.1068   -9.3636 C   0  0  0  0  0  0
  -23.8869   22.9318   -7.9163 C   0  0  0  0  0  0
  -23.5985   21.1015   -8.8120 C   0  0  0  0  0  0
  -23.3600   21.1461  -10.6099 N   0  0  0  0  0  0
  -24.5478   21.9271  -11.5605 C   0  0  0  0  0  0
  -25.0583   23.6143  -11.2033 C   0  0  0  0  0  0
  -21.9990   21.4807  -11.0994 C   0  0  0  0  0  0
  -21.4995   22.5999  -10.9654 O   0  0  0  0  0  0
  -21.1181   20.2561  -11.5178 C   0  0  0  0  0  0
  -19.5125   20.7772  -12.3358 S   0  0  0  0  0  0
  -19.3107   19.9415  -13.9050 C   0  0  0  0  0  0
  -18.4125   20.2915  -14.8871 C   0  0  0  0  0  0
  -18.7336   19.6162  -16.0708 N   0  0  0  0  0  0
  -17.9821   19.8179  -17.3012 C   0  0  0  0  0  0
  -17.0701   18.6519  -17.6031 C   0  0  0  0  0  0
  -17.5994   17.4501  -18.0962 C   0  0  0  0  0  0
  -16.7620   16.3696  -18.3859 C   0  0  0  0  0  0
  -15.3903   16.4761  -18.1681 C   0  0  0  0  0  0
  -14.3670   15.1308  -18.4897 Cl  0  0  0  0  0  0
  -14.8454   17.6626  -17.6842 C   0  0  0  0  0  0
  -15.6819   18.7475  -17.4026 C   0  0  0  0  0  0
  -19.9685   18.9654  -15.9529 C   0  0  0  0  0  0
  -20.0461   18.8315  -14.4620 C   0  0  0  0  0  0
  -21.4002   18.0877  -13.7886 C   0  0  0  0  0  0
  -22.9848   17.4212  -14.7581 C   0  0  0  0  0  0
  -22.6962   17.7310  -16.5475 C   0  0  0  0  0  0
  -21.1791   18.4481  -17.0163 C   0  0  0  0  0  0
  1  2  1  0  0  0
  2  3  1  0  0  0
  2  7  1  0  0  0
  3  4  1  0  0  0
  4  5  1  0  0  0
  5  6  1  0  0  0
  5  8  1  0  0  0
  6  7  1  0  0  0
  8  9  2  0  0  0
  8 10  1  0  0  0
 10 11  1  0  0  0
 11 12  1  0  0  0
 12 13  2  0  0  0
 12 24  1  0  0  0
 13 14  1  0  0  0
 14 15  1  0  0  0
 14 23  1  0  0  0
 15 16  1  0  0  0
 16 17  2  0  0  0
 16 22  1  0  0  0
 17 18  1  0  0  0
 18 19  2  0  0  0
 19 20  1  0  0  0
 19 21  1  0  0  0
 21 22  2  0  0  0
 23 24  2  0  0  0
 23 28  1  0  0  0
 24 25  1  0  0  0
 25 26  2  0  0  0
 26 27  1  0  0  0
 27 28  2  0  0  0
M  END
>  <CHROM.0>
-61.67215792,-73.81295189,-130.55184758,-140.68410470,-30.19770435,-176.36978174
82.26838378,-162.34583346

>  <CHROM.1>
-68.35652650,172.28095561,-127.72942913,165.25271150,105.10626538,75.20632349
-20.13257342,19.63109647,-14.17280780,2.27270013,0.02994430,0.92805653

>  <Name>
F0545-1023

>  <RI>
4.13433e+07

>  <Rbt.Current_Directory>
/home/adria/Escritorio/rDock_CMTR_LC/2pxcA_model/inputs_sah

>  <Rbt.Executable>
rbdock ($Id: //depot/dev/client3/rdock/2013.1/src/exe/rbdock.cxx#4 $)

>  <Rbt.Library>
libRbt.so (2013.1, Build901 2013/11/27)

>  <Rbt.Parameter_File>
/home/adria/Escritorio/rDock_2013.1_src/data/scripts/dock.prm

>  <Rbt.Receptor>
sah_rdock.prm

>  <SCORE>
-271.189

>  <SCORE.INTER>
-13.8506

>  <SCORE.INTER.CONST>
1

>  <SCORE.INTER.POLAR>
0

>  <SCORE.INTER.REPUL>
0

>  <SCORE.INTER.ROT>
6

>  <SCORE.INTER.VDW>
-25.2506

>  <SCORE.INTER.norm>
-0.494663

>  <SCORE.INTRA>
-253.751

>  <SCORE.INTRA.DIHEDRAL>
2.0626

>  <SCORE.INTRA.DIHEDRAL.0>
4.53132

>  <SCORE.INTRA.POLAR>
0

>  <SCORE.INTRA.POLAR.0>
0

>  <SCORE.INTRA.REPUL>
0

>  <SCORE.INTRA.REPUL.0>
0

>  <SCORE.INTRA.VDW>
-254.782

>  <SCORE.INTRA.VDW.0>
252.445

>  <SCORE.INTRA.norm>
-9.06254

>  <SCORE.RESTR>
0

>  <SCORE.RESTR.CAVITY>
0

>  <SCORE.RESTR.norm>
0

>  <SCORE.SYSTEM>
-3.58762

>  <SCORE.SYSTEM.CONST>
0

>  <SCORE.SYSTEM.DIHEDRAL>
14.6623

>  <SCORE.SYSTEM.POLAR>
-4.50029

>  <SCORE.SYSTEM.REPUL>
0.0399549

>  <SCORE.SYSTEM.VDW>
4.18242

>  <SCORE.SYSTEM.norm>
-0.128129

>  <SCORE.heavy>
28

>  <SCORE.norm>
-9.68533

$$$$
F0545-1023
  rDOCK(R)          3D
libRbt.so/2013.1/901 2013/11/27
 28 31  0  0  0  0  0  0  0  0999 V2000
  -25.9283   24.1462  -10.1850 C   0  0  0  0  0  0
  -24.5016   23.2647  -11.1214 C   0  0  0  0  0  0
  -23.5604   24.3355  -12.9178 C   0  0  0  0  0  0
  -22.4836   25.8946  -12.1144 C   0  0  0  0  0  0
  -21.5989   25.5157  -10.5766 N   0  0  0  0  0  0
  -22.4948   24.8708   -9.2704 C   0  0  0  0  0  0
  -23.5259   23.4127   -9.4843 C   0  0  0  0  0  0
  -20.2935   24.8207  -10.7057 C   0  0  0  0  0  0
  -19.4787   24.7570   -9.7826 O   0  0  0  0  0  0
  -20.1404   23.9134  -11.9722 C   0  0  0  0  0  0
  -20.5499   22.1175  -11.6183 S   0  0  0  0  0  0
  -20.1353   21.0929  -13.0253 C   0  0  0  0  0  0
  -19.5272   21.5292  -14.1801 C   0  0  0  0  0  0
  -19.6274   20.5351  -15.1609 N   0  0  0  0  0  0
  -19.1098   20.7266  -16.5080 C   0  0  0  0  0  0
  -17.8333   19.9518  -16.7376 C   0  0  0  0  0  0
  -17.8499   18.7714  -17.4953 C   0  0  0  0  0  0
  -16.6723   18.0533  -17.7195 C   0  0  0  0  0  0
  -15.4716   18.5001  -17.1729 C   0  0  0  0  0  0
  -14.0306   17.5926  -17.4189 Cl  0  0  0  0  0  0
  -15.4339   19.6723  -16.4224 C   0  0  0  0  0  0
  -16.6105   20.3965  -16.2052 C   0  0  0  0  0  0
  -20.4801   19.5061  -14.7408 C   0  0  0  0  0  0
  -20.3931   19.6917  -13.2560 C   0  0  0  0  0  0
  -21.2782   18.6586  -12.2610 C   0  0  0  0  0  0
  -22.5185   17.2374  -12.8414 C   0  0  0  0  0  0
  -22.5053   17.2231  -14.6800 C   0  0  0  0  0  0
  -21.4468   18.3405  -15.4963 C   0  0  0  0  0  0
  1  2  1  0  0  0
  2  3  1  0  0  0
  2  7  1  0  0  0
  3  4  1  0  0  0
  4  5  1  0  0  0
  5  6  1  0  0  0
  5  8  1  0  0  0
  6  7  1  0  0  0
  8  9  2  0  0  0
  8 10  1  0  0  0
 10 11  1  0  0  0
 11 12  1  0  0  0
 12 13  2  0  0  0
 12 24  1  0  0  0
 13 14  1  0  0  0
 14 15  1  0  0  0
 14 23  1  0  0  0
 15 16  1  0  0  0
 16 17  2  0  0  0
 16 22  1  0  0  0
 17 18  1  0  0  0
 18 19  2  0  0  0
 19 20  1  0  0  0
 19 21  1  0  0  0
 21 22  2  0  0  0
 23 24  2  0  0  0
 23 28  1  0  0  0
 24 25  1  0  0  0
 25 26  2  0  0  0
 26 27  1  0  0  0
 27 28  2  0  0  0
M  END
>  <CHROM.0>
177.32223217,69.87174712,111.10967310,-60.44105783,-29.71426304,-55.50612976
-36.63242767,-164.59790397

>  <CHROM.1>
164.52966575,-95.28036617,-171.88663935,3.66791523,105.65872309,104.21085979
-19.94272351,21.17220265,-13.64424493,2.28039199,0.36601654,0.53560207

>  <Name>
F0545-1023

>  <RI>
4.13433e+07

>  <Rbt.Current_Directory>
/home/adria/Escritorio/rDock_CMTR_LC/2pxcA_model/inputs_sah

>  <Rbt.Executable>
rbdock ($Id: //depot/dev/client3/rdock/2013.1/src/exe/rbdock.cxx#4 $)

>  <Rbt.Library>
libRbt.so (2013.1, Build901 2013/11/27)

>  <Rbt.Parameter_File>
/home/adria/Escritorio/rDock_2013.1_src/data/scripts/dock.prm

>  <Rbt.Receptor>
sah_rdock.prm

>  <SCORE>
-278.285

>  <SCORE.INTER>
-17.0366

>  <SCORE.INTER.CONST>
1

>  <SCORE.INTER.POLAR>
0

>  <SCORE.INTER.REPUL>
0

>  <SCORE.INTER.ROT>
6

>  <SCORE.INTER.VDW>
-28.4366

>  <SCORE.INTER.norm>
-0.60845

>  <SCORE.INTRA>
-254.944

>  <SCORE.INTRA.DIHEDRAL>
-0.29633

>  <SCORE.INTRA.DIHEDRAL.0>
4.53132

>  <SCORE.INTRA.POLAR>
0

>  <SCORE.INTRA.POLAR.0>
0

>  <SCORE.INTRA.REPUL>
0

>  <SCORE.INTRA.REPUL.0>
0

>  <SCORE.INTRA.VDW>
-254.795

>  <SCORE.INTRA.VDW.0>
252.445

>  <SCORE.INTRA.norm>
-9.10513

>  <SCORE.RESTR>
0

>  <SCORE.RESTR.CAVITY>
0

>  <SCORE.RESTR.norm>
0

>  <SCORE.SYSTEM>
-6.30532

>  <SCORE.SYSTEM.CONST>
0

>  <SCORE.SYSTEM.DIHEDRAL>
9.14467

>  <SCORE.SYSTEM.POLAR>
-4.27927

>  <SCORE.SYSTEM.VDW>
3.67185

>  <SCORE.SYSTEM.norm>
-0.22519

>  <SCORE.heavy>
28

>  <SCORE.norm>
-9.93877

$$$$
F0545-1023
  rDOCK(R)          3D
libRbt.so/2013.1/901 2013/11/27
 28 31  0  0  0  0  0  0  0  0999 V2000
  -23.8882   25.2550  -13.0950 C   0  0  0  0  0  0
  -22.3604   24.2517  -12.5047 C   0  0  0  0  0  0
  -21.6146   24.5750  -10.3601 C   0  0  0  0  0  0
  -23.0382   23.7042   -9.1558 C   0  0  0  0  0  0
  -23.7246   22.1415   -9.7707 N   0  0  0  0  0  0
  -24.3957   22.1205  -11.3435 C   0  0  0  0  0  0
  -23.4547   22.7054  -12.7603 C   0  0  0  0  0  0
  -22.9241   20.9147   -9.5301 C   0  0  0  0  0  0
  -22.8950   20.3417   -8.4387 O   0  0  0  0  0  0
  -22.3655   20.2170  -10.8153 C   0  0  0  0  0  0
  -20.8842   21.1181  -11.5309 S   0  0  0  0  0  0
  -20.4362   20.4226  -13.1174 C   0  0  0  0  0  0
  -19.6205   21.0207  -14.0506 C   0  0  0  0  0  0
  -19.7304   20.3377  -15.2678 N   0  0  0  0  0  0
  -19.0130   20.7669  -16.4597 C   0  0  0  0  0  0
  -17.7872   19.9217  -16.7156 C   0  0  0  0  0  0
  -16.5520   20.2809  -16.1562 C   0  0  0  0  0  0
  -15.4151   19.5001  -16.3810 C   0  0  0  0  0  0
  -15.5003   18.3636  -17.1818 C   0  0  0  0  0  0
  -14.0903   17.4262  -17.4878 Cl  0  0  0  0  0  0
  -16.7186   17.9878  -17.7416 C   0  0  0  0  0  0
  -17.8588   18.7637  -17.5096 C   0  0  0  0  0  0
  -20.7724   19.4026  -15.2212 C   0  0  0  0  0  0
  -20.8611   19.1917  -13.7399 C   0  0  0  0  0  0
  -22.0133   18.1143  -13.1464 C   0  0  0  0  0  0
  -23.3567   17.1246  -14.2003 C   0  0  0  0  0  0
  -23.0971   17.5697  -15.9654 C   0  0  0  0  0  0
  -21.7869   18.6521  -16.3489 C   0  0  0  0  0  0
  1  2  1  0  0  0
  2  3  1  0  0  0
  2  7  1  0  0  0
  3  4  1  0  0  0
  4  5  1  0  0  0
  5  6  1  0  0  0
  5  8  1  0  0  0
  6  7  1  0  0  0
  8  9  2  0  0  0
  8 10  1  0  0  0
 10 11  1  0  0  0
 11 12  1  0  0  0
 12 13  2  0  0  0
 12 24  1  0  0  0
 13 14  1  0  0  0
 14 15  1  0  0  0
 14 23  1  0  0  0
 15 16  1  0  0  0
 16 17  2  0  0  0
 16 22  1  0  0  0
 17 18  1  0  0  0
 18 19  2  0  0  0
 19 20  1  0  0  0
 19 21  1  0  0  0
 21 22  2  0  0  0
 23 24  2  0  0  0
 23 28  1  0  0  0
 24 25  1  0  0  0
 25 26  2  0  0  0
 26 27  1  0  0  0
 27 28  2  0  0  0
M  END
>  <CHROM.0>
-176.84993430,66.13608354,-45.29536193,65.15818510,-32.03898917,64.85525916
81.75552938,-161.88819314

>  <CHROM.1>
78.21181664,76.44389242,-171.79096306,163.85303676,101.63766148,-89.62233331
-20.31524666,20.36885108,-13.79905317,-2.42202838,-0.44525058,-2.57960240

>  <Name>
F0545-1023

>  <RI>
4.13433e+07

>  <Rbt.Current_Directory>
/home/adria/Escritorio/rDock_CMTR_LC/2pxcA_model/inputs_sah

>  <Rbt.Executable>
rbdock ($Id: //depot/dev/client3/rdock/2013.1/src/exe/rbdock.cxx#4 $)

>  <Rbt.Library>
libRbt.so (2013.1, Build901 2013/11/27)

>  <Rbt.Parameter_File>
/home/adria/Escritorio/rDock_2013.1_src/data/scripts/dock.prm

>  <Rbt.Receptor>
sah_rdock.prm

>  <SCORE>
-272.88

>  <SCORE.INTER>
-12.958

>  <SCORE.INTER.CONST>
1

>  <SCORE.INTER.POLAR>
0

>  <SCORE.INTER.REPUL>
0.040422

>  <SCORE.INTER.ROT>
6

>  <SCORE.INTER.VDW>
-24.5601

>  <SCORE.INTER.norm>
-0.462785

>  <SCORE.INTRA>
-253.342

>  <SCORE.INTRA.DIHEDRAL>
0.031001

>  <SCORE.INTRA.DIHEDRAL.0>
4.53132

>  <SCORE.INTRA.POLAR>
0

>  <SCORE.INTRA.POLAR.0>
0

>  <SCORE.INTRA.REPUL>
0

>  <SCORE.INTRA.REPUL.0>
0

>  <SCORE.INTRA.VDW>
-253.358

>  <SCORE.INTRA.VDW.0>
252.445

>  <SCORE.INTRA.norm>
-9.04793

>  <SCORE.RESTR>
0

>  <SCORE.RESTR.CAVITY>
0

>  <SCORE.RESTR.norm>
0

>  <SCORE.SYSTEM>
-6.57948

>  <SCORE.SYSTEM.CONST>
0

>  <SCORE.SYSTEM.DIHEDRAL>
5.65661

>  <SCORE.SYSTEM.POLAR>
-3.59315

>  <SCORE.SYSTEM.VDW>
2.80893

>  <SCORE.SYSTEM.norm>
-0.234981

>  <SCORE.heavy>
28

>  <SCORE.norm>
-9.7457

$$$$
F0545-1023
  rDOCK(R)          3D
libRbt.so/2013.1/901 2013/11/27
 28 31  0  0  0  0  0  0  0  0999 V2000
  -24.0348   21.0328  -10.1415 C   0  0  0  0  0  0
  -23.7094   21.7817  -11.8800 C   0  0  0  0  0  0
  -22.2536   23.5462  -12.0444 C   0  0  0  0  0  0
  -20.3900   22.7431  -11.7020 C   0  0  0  0  0  0
  -20.1002   21.1116  -12.4404 N   0  0  0  0  0  0
  -21.2023   19.8558  -12.0760 C   0  0  0  0  0  0
  -22.9707   20.0747  -12.3210 C   0  0  0  0  0  0
  -19.7324   21.0801  -13.8783 C   0  0  0  0  0  0
  -20.0194   21.9899  -14.6593 O   0  0  0  0  0  0
  -18.6966   19.9774  -14.2805 C   0  0  0  0  0  0
  -19.4958   18.2959  -14.5093 S   0  0  0  0  0  0
  -18.4566   17.2415  -15.5141 C   0  0  0  0  0  0
  -18.4385   15.8660  -15.4752 C   0  0  0  0  0  0
  -17.3156   15.3975  -16.1678 N   0  0  0  0  0  0
  -17.0052   13.9783  -16.2623 C   0  0  0  0  0  0
  -16.3718   13.6261  -17.5879 C   0  0  0  0  0  0
  -17.1451   13.0603  -18.6123 C   0  0  0  0  0  0
  -16.5689   12.7393  -19.8443 C   0  0  0  0  0  0
  -15.2108   12.9650  -20.0556 C   0  0  0  0  0  0
  -14.4967   12.5330  -21.5603 Cl  0  0  0  0  0  0
  -14.4277   13.5307  -19.0528 C   0  0  0  0  0  0
  -15.0057   13.8606  -17.8227 C   0  0  0  0  0  0
  -16.4605   16.4554  -16.5025 C   0  0  0  0  0  0
  -17.4364   17.5927  -16.4727 C   0  0  0  0  0  0
  -16.8768   19.1446  -16.8174 C   0  0  0  0  0  0
  -15.0114   19.6706  -17.1902 C   0  0  0  0  0  0
  -13.9932   18.1408  -17.1265 C   0  0  0  0  0  0
  -14.8086   16.6308  -16.8258 C   0  0  0  0  0  0
  1  2  1  0  0  0
  2  3  1  0  0  0
  2  7  1  0  0  0
  3  4  1  0  0  0
  4  5  1  0  0  0
  5  6  1  0  0  0
  5  8  1  0  0  0
  6  7  1  0  0  0
  8  9  2  0  0  0
  8 10  1  0  0  0
 10 11  1  0  0  0
 11 12  1  0  0  0
 12 13  2  0  0  0
 12 24  1  0  0  0
 13 14  1  0  0  0
 14 15  1  0  0  0
 14 23  1  0  0  0
 15 16  1  0  0  0
 16 17  2  0  0  0
 16 22  1  0  0  0
 17 18  1  0  0  0
 18 19  2  0  0  0
 19 20  1  0  0  0
 19 21  1  0  0  0
 21 22  2  0  0  0
 23 24  2  0  0  0
 23 28  1  0  0  0
 24 25  1  0  0  0
 25 26  2  0  0  0
 26 27  1  0  0  0
 27 28  2  0  0  0
M  END
>  <CHROM.0>
-55.87417163,-71.29629787,72.93271710,63.69025383,168.32571246,-176.35351893
-36.67535174,-164.99786324

>  <CHROM.1>
-23.57658742,80.95657880,159.33639005,153.74067107,145.76142610,-99.69194399
-18.08666834,17.49558155,-15.84558482,2.22592799,0.55503982,0.35494889

>  <Name>
F0545-1023

>  <RI>
4.13433e+07

>  <Rbt.Current_Directory>
/home/adria/Escritorio/rDock_CMTR_LC/2pxcA_model/inputs_sah

>  <Rbt.Executable>
rbdock ($Id: //depot/dev/client3/rdock/2013.1/src/exe/rbdock.cxx#4 $)

>  <Rbt.Library>
libRbt.so (2013.1, Build901 2013/11/27)

>  <Rbt.Parameter_File>
/home/adria/Escritorio/rDock_2013.1_src/data/scripts/dock.prm

>  <Rbt.Receptor>
sah_rdock.prm

>  <SCORE>
-268.902

>  <SCORE.INTER>
-12.8415

>  <SCORE.INTER.CONST>
1

>  <SCORE.INTER.POLAR>
0

>  <SCORE.INTER.REPUL>
0.0019934

>  <SCORE.INTER.ROT>
6

>  <SCORE.INTER.VDW>
-24.2514

>  <SCORE.INTER.norm>
-0.458624

>  <SCORE.INTRA>
-253.234

>  <SCORE.INTRA.DIHEDRAL>
2.48533

>  <SCORE.INTRA.DIHEDRAL.0>
4.53132

>  <SCORE.INTRA.POLAR>
0

>  <SCORE.INTRA.POLAR.0>
0

>  <SCORE.INTRA.REPUL>
0

>  <SCORE.INTRA.REPUL.0>
0

>  <SCORE.INTRA.VDW>
-254.477

>  <SCORE.INTRA.VDW.0>
252.445

>  <SCORE.INTRA.norm>
-9.04409

>  <SCORE.RESTR>
0

>  <SCORE.RESTR.CAVITY>
0

>  <SCORE.RESTR.norm>
0

>  <SCORE.SYSTEM>
-2.82614

>  <SCORE.SYSTEM.CONST>
0

>  <SCORE.SYSTEM.DIHEDRAL>
3.34944

>  <SCORE.SYSTEM.POLAR>
-3.96727

>  <SCORE.SYSTEM.REPUL>
0.0353522

>  <SCORE.SYSTEM.VDW>
8.81109

>  <SCORE.SYSTEM.norm>
-0.100934

>  <SCORE.heavy>
28

>  <SCORE.norm>
-9.60364

$$$$
F0545-1023
  rDOCK(R)          3D
libRbt.so/2013.1/901 2013/11/27
 28 31  0  0  0  0  0  0  0  0999 V2000
  -26.1003   23.2132   -7.6361 C   0  0  0  0  0  0
  -26.3401   22.4295   -9.3733 C   0  0  0  0  0  0
  -25.3636   23.4636  -11.1724 C   0  0  0  0  0  0
  -23.3446   23.1266  -10.9593 C   0  0  0  0  0  0
  -22.8920   21.4731  -10.3657 N   0  0  0  0  0  0
  -23.5941   20.9212   -8.9073 C   0  0  0  0  0  0
  -25.3775   20.9330   -8.6748 C   0  0  0  0  0  0
  -22.8594   20.3829  -11.3728 C   0  0  0  0  0  0
  -23.7062   20.2721  -12.2621 O   0  0  0  0  0  0
  -21.5258   19.5651  -11.4313 C   0  0  0  0  0  0
  -20.1597   20.4891  -12.3248 S   0  0  0  0  0  0
  -19.9317   19.8282  -13.9718 C   0  0  0  0  0  0
  -18.9506   20.2108  -14.8577 C   0  0  0  0  0  0
  -19.2532   19.7091  -16.1293 N   0  0  0  0  0  0
  -18.4150   19.9869  -17.2868 C   0  0  0  0  0  0
  -17.4373   18.8673  -17.5573 C   0  0  0  0  0  0
  -16.0611   19.0727  -17.3790 C   0  0  0  0  0  0
  -15.1507   18.0401  -17.6190 C   0  0  0  0  0  0
  -15.6076   16.7990  -18.0562 C   0  0  0  0  0  0
  -14.4806   15.5418  -18.3875 Cl  0  0  0  0  0  0
  -16.9702   16.5742  -18.2340 C   0  0  0  0  0  0
  -17.8827   17.6045  -17.9853 C   0  0  0  0  0  0
  -20.5415   19.1595  -16.1536 C   0  0  0  0  0  0
  -20.7194   18.8595  -14.6959 C   0  0  0  0  0  0
  -22.1674   18.1633  -14.1868 C   0  0  0  0  0  0
  -23.7392   17.7558  -15.3085 C   0  0  0  0  0  0
  -23.3191   18.2463  -17.0302 C   0  0  0  0  0  0
  -21.7236   18.8779  -17.3315 C   0  0  0  0  0  0
  1  2  1  0  0  0
  2  3  1  0  0  0
  2  7  1  0  0  0
  3  4  1  0  0  0
  4  5  1  0  0  0
  5  6  1  0  0  0
  5  8  1  0  0  0
  6  7  1  0  0  0
  8  9  2  0  0  0
  8 10  1  0  0  0
 10 11  1  0  0  0
 11 12  1  0  0  0
 12 13  2  0  0  0
 12 24  1  0  0  0
 13 14  1  0  0  0
 14 15  1  0  0  0
 14 23  1  0  0  0
 15 16  1  0  0  0
 16 17  2  0  0  0
 16 22  1  0  0  0
 17 18  1  0  0  0
 18 19  2  0  0  0
 19 20  1  0  0  0
 19 21  1  0  0  0
 21 22  2  0  0  0
 23 24  2  0  0  0
 23 28  1  0  0  0
 24 25  1  0  0  0
 25 26  2  0  0  0
 26 27  1  0  0  0
 27 28  2  0  0  0
M  END
>  <CHROM.0>
-177.47907222,-75.37900396,75.62443192,-142.23555960,168.13459773,-56.22636597
83.11079707,-166.34463002

>  <CHROM.1>
-40.55181713,-77.16989298,-103.54259044,-175.06821998,96.60807485,-112.26135327
-20.56372617,19.50634343,-14.20343754,-2.30429721,0.04841260,-2.04966534

>  <Name>
F0545-1023

>  <RI>
4.13433e+07

>  <Rbt.Current_Directory>
/home/adria/Escritorio/rDock_CMTR_LC/2pxcA_model/inputs_sah

>  <Rbt.Executable>
rbdock ($Id: //depot/dev/client3/rdock/2013.1/src/exe/rbdock.cxx#4 $)

>  <Rbt.Library>
libRbt.so (2013.1, Build901 2013/11/27)

>  <Rbt.Parameter_File>
/home/adria/Escritorio/rDock_2013.1_src/data/scripts/dock.prm

>  <Rbt.Receptor>
sah_rdock.prm

>  <SCORE>
-265.45

>  <SCORE.INTER>
-11.8888

>  <SCORE.INTER.CONST>
1

>  <SCORE.INTER.POLAR>
0

>  <SCORE.INTER.REPUL>
0

>  <SCORE.INTER.ROT>
6

>  <SCORE.INTER.VDW>
-23.2888

>  <SCORE.INTER.norm>
-0.424598

>  <SCORE.INTRA>
-254.641

>  <SCORE.INTRA.DIHEDRAL>
1.26913

>  <SCORE.INTRA.DIHEDRAL.0>
4.53132

>  <SCORE.INTRA.POLAR>
0

>  <SCORE.INTRA.POLAR.0>
0

>  <SCORE.INTRA.REPUL>
0

>  <SCORE.INTRA.REPUL.0>
0

>  <SCORE.INTRA.VDW>
-255.275

>  <SCORE.INTRA.VDW.0>
252.445

>  <SCORE.INTRA.norm>
-9.09431

>  <SCORE.RESTR>
0

>  <SCORE.RESTR.CAVITY>
0

>  <SCORE.RESTR.norm>
0

>  <SCORE.SYSTEM>
1.07977

>  <SCORE.SYSTEM.CONST>
0

>  <SCORE.SYSTEM.DIHEDRAL>
8.86995

>  <SCORE.SYSTEM.POLAR>
-3.96917

>  <SCORE.SYSTEM.REPUL>
0.0425043

>  <SCORE.SYSTEM.VDW>
9.92744

>  <SCORE.SYSTEM.norm>
0.0385631

>  <SCORE.heavy>
28

>  <SCORE.norm>
-9.48035

$$$$
F0545-1023
  rDOCK(R)          3D
libRbt.so/2013.1/901 2013/11/27
 28 31  0  0  0  0  0  0  0  0999 V2000
  -25.0849   21.0473   -9.2185 C   0  0  0  0  0  0
  -24.3320   19.2805   -9.2524 C   0  0  0  0  0  0
  -24.8068   17.9348  -11.0477 C   0  0  0  0  0  0
  -23.7594   18.7454  -12.6229 C   0  0  0  0  0  0
  -22.0997   19.3565  -12.2189 N   0  0  0  0  0  0
  -21.9468   20.4913  -10.9487 C   0  0  0  0  0  0
  -22.6354   20.1584   -9.3208 C   0  0  0  0  0  0
  -21.0106   18.3500  -12.1514 C   0  0  0  0  0  0
  -20.7441   17.7250  -11.1226 O   0  0  0  0  0  0
  -20.4238   17.9049  -13.5328 C   0  0  0  0  0  0
  -19.2795   19.1943  -14.2719 S   0  0  0  0  0  0
  -18.5308   18.5773  -15.7752 C   0  0  0  0  0  0
  -18.7962   17.3596  -16.3588 C   0  0  0  0  0  0
  -17.8293   17.0932  -17.3357 N   0  0  0  0  0  0
  -17.8246   15.8525  -18.0972 C   0  0  0  0  0  0
  -18.1098   14.6532  -17.2238 C   0  0  0  0  0  0
  -17.6261   14.6065  -15.9079 C   0  0  0  0  0  0
  -17.8924   13.5047  -15.0906 C   0  0  0  0  0  0
  -18.6295   12.4327  -15.5884 C   0  0  0  0  0  0
  -18.9226   11.0612  -14.5918 Cl  0  0  0  0  0  0
  -19.1226   12.4629  -16.8902 C   0  0  0  0  0  0
  -18.8642   13.5692  -17.7058 C   0  0  0  0  0  0
  -16.7906   18.0314  -17.2764 C   0  0  0  0  0  0
  -17.5072   19.1645  -16.6062 C   0  0  0  0  0  0
  -16.6554   20.5848  -16.2937 C   0  0  0  0  0  0
  -14.7417   20.9148  -16.6456 C   0  0  0  0  0  0
  -14.0606   19.3898  -17.4148 C   0  0  0  0  0  0
  -15.1557   18.0677  -17.7120 C   0  0  0  0  0  0
  1  2  1  0  0  0
  2  3  1  0  0  0
  2  7  1  0  0  0
  3  4  1  0  0  0
  4  5  1  0  0  0
  5  6  1  0  0  0
  5  8  1  0  0  0
  6  7  1  0  0  0
  8  9  2  0  0  0
  8 10  1  0  0  0
 10 11  1  0  0  0
 11 12  1  0  0  0
 12 13  2  0  0  0
 12 24  1  0  0  0
 13 14  1  0  0  0
 14 15  1  0  0  0
 14 23  1  0  0  0
 15 16  1  0  0  0
 16 17  2  0  0  0
 16 22  1  0  0  0
 17 18  1  0  0  0
 18 19  2  0  0  0
 19 20  1  0  0  0
 19 21  1  0  0  0
 21 22  2  0  0  0
 23 24  2  0  0  0
 23 28  1  0  0  0
 24 25  1  0  0  0
 25 26  2  0  0  0
 26 27  1  0  0  0
 27 28  2  0  0  0
M  END
>  <CHROM.0>
-179.08689095,64.53638760,-8.16829802,66.39822653,-31.36816199,-179.53436763
-53.56185430,-163.37708502

>  <CHROM.1>
-87.56845185,76.19662743,175.15668700,3.09366700,-42.47357020,-35.87567354
-19.45890495,17.19649794,-14.46919776,2.56039663,0.73499629,0.16981324

>  <Name>
F0545-1023

>  <RI>
4.13433e+07

>  <Rbt.Current_Directory>
/home/adria/Escritorio/rDock_CMTR_LC/2pxcA_model/inputs_sah

>  <Rbt.Executable>
rbdock ($Id: //depot/dev/client3/rdock/2013.1/src/exe/rbdock.cxx#4 $)

>  <Rbt.Library>
libRbt.so (2013.1, Build901 2013/11/27)

>  <Rbt.Parameter_File>
/home/adria/Escritorio/rDock_2013.1_src/data/scripts/dock.prm

>  <Rbt.Receptor>
sah_rdock.prm

>  <SCORE>
-275.733

>  <SCORE.INTER>
-17.1573

>  <SCORE.INTER.CONST>
1

>  <SCORE.INTER.POLAR>
-0.822755

>  <SCORE.INTER.REPUL>
0

>  <SCORE.INTER.ROT>
6

>  <SCORE.INTER.VDW>
-25.7599

>  <SCORE.INTER.norm>
-0.612759

>  <SCORE.INTRA>
-253.825

>  <SCORE.INTRA.DIHEDRAL>
0.301801

>  <SCORE.INTRA.DIHEDRAL.0>
4.53132

>  <SCORE.INTRA.POLAR>
0

>  <SCORE.INTRA.POLAR.0>
0

>  <SCORE.INTRA.REPUL>
0

>  <SCORE.INTRA.REPUL.0>
0

>  <SCORE.INTRA.VDW>
-253.976

>  <SCORE.INTRA.VDW.0>
252.445

>  <SCORE.INTRA.norm>
-9.06517

>  <SCORE.RESTR>
1.03882

>  <SCORE.RESTR.CAVITY>
1.03882

>  <SCORE.RESTR.norm>
0.0371006

>  <SCORE.SYSTEM>
-5.78939

>  <SCORE.SYSTEM.CONST>
0

>  <SCORE.SYSTEM.DIHEDRAL>
7.58074

>  <SCORE.SYSTEM.POLAR>
-3.78593

>  <SCORE.SYSTEM.VDW>
3.29239

>  <SCORE.SYSTEM.norm>
-0.206764

>  <SCORE.heavy>
28

>  <SCORE.norm>
-9.84759

$$$$
F0545-1023
  rDOCK(R)          3D
libRbt.so/2013.1/901 2013/11/27
 28 31  0  0  0  0  0  0  0  0999 V2000
  -26.6970   23.9863   -9.5365 C   0  0  0  0  0  0
  -25.1769   22.8127   -9.4989 C   0  0  0  0  0  0
  -25.1147   21.0721  -10.9908 C   0  0  0  0  0  0
  -24.7843   21.9442  -12.8254 C   0  0  0  0  0  0
  -23.6124   23.3291  -12.8268 N   0  0  0  0  0  0
  -23.9046   24.6319  -11.7582 C   0  0  0  0  0  0
  -24.1565   24.3496   -9.9999 C   0  0  0  0  0  0
  -22.1679   22.9874  -12.8481 C   0  0  0  0  0  0
  -21.3876   23.4448  -13.6860 O   0  0  0  0  0  0
  -21.6328   22.2608  -11.5689 C   0  0  0  0  0  0
  -19.9512   21.4764  -11.8435 S   0  0  0  0  0  0
  -20.0787   20.1106  -12.9921 C   0  0  0  0  0  0
  -19.6071   20.1069  -14.2850 C   0  0  0  0  0  0
  -20.1360   19.0052  -14.9681 N   0  0  0  0  0  0
  -19.8481   18.7593  -16.3738 C   0  0  0  0  0  0
  -18.3842   18.4677  -16.6074 C   0  0  0  0  0  0
  -17.9010   17.1545  -16.5088 C   0  0  0  0  0  0
  -16.5501   16.8748  -16.7315 C   0  0  0  0  0  0
  -15.6680   17.9086  -17.0372 C   0  0  0  0  0  0
  -13.9985   17.5658  -17.2729 Cl  0  0  0  0  0  0
  -16.1297   19.2179  -17.1447 C   0  0  0  0  0  0
  -17.4833   19.4972  -16.9309 C   0  0  0  0  0  0
  -21.1266   18.3749  -14.2040 C   0  0  0  0  0  0
  -20.7198   18.8272  -12.8341 C   0  0  0  0  0  0
  -21.6346   18.3199  -11.5127 C   0  0  0  0  0  0
  -23.2790   17.2297  -11.5647 C   0  0  0  0  0  0
  -23.6136   16.8363  -13.3295 C   0  0  0  0  0  0
  -22.4794   17.4089  -14.5216 C   0  0  0  0  0  0
  1  2  1  0  0  0
  2  3  1  0  0  0
  2  7  1  0  0  0
  3  4  1  0  0  0
  4  5  1  0  0  0
  5  6  1  0  0  0
  5  8  1  0  0  0
  6  7  1  0  0  0
  8  9  2  0  0  0
  8 10  1  0  0  0
 10 11  1  0  0  0
 11 12  1  0  0  0
 12 13  2  0  0  0
 12 24  1  0  0  0
 13 14  1  0  0  0
 14 15  1  0  0  0
 14 23  1  0  0  0
 15 16  1  0  0  0
 16 17  2  0  0  0
 16 22  1  0  0  0
 17 18  1  0  0  0
 18 19  2  0  0  0
 19 20  1  0  0  0
 19 21  1  0  0  0
 21 22  2  0  0  0
 23 24  2  0  0  0
 23 28  1  0  0  0
 24 25  1  0  0  0
 25 26  2  0  0  0
 26 27  1  0  0  0
 27 28  2  0  0  0
M  END
>  <CHROM.0>
-61.42260674,-72.70176242,-9.34932851,-59.41521555,-30.87585858,61.92752392
-158.49110733,-161.76199349

>  <CHROM.1>
126.65404942,165.12624296,-67.77425892,108.57673596,64.68993515,87.86920995
-20.63360157,20.15049040,-13.71318914,-2.56786567,-0.50971460,-2.91502806

>  <Name>
F0545-1023

>  <RI>
4.13433e+07

>  <Rbt.Current_Directory>
/home/adria/Escritorio/rDock_CMTR_LC/2pxcA_model/inputs_sah

>  <Rbt.Executable>
rbdock ($Id: //depot/dev/client3/rdock/2013.1/src/exe/rbdock.cxx#4 $)

>  <Rbt.Library>
libRbt.so (2013.1, Build901 2013/11/27)

>  <Rbt.Parameter_File>
/home/adria/Escritorio/rDock_2013.1_src/data/scripts/dock.prm

>  <Rbt.Receptor>
sah_rdock.prm

>  <SCORE>
-272.118

>  <SCORE.INTER>
-11.3657

>  <SCORE.INTER.CONST>
1

>  <SCORE.INTER.POLAR>
0

>  <SCORE.INTER.REPUL>
0.0439332

>  <SCORE.INTER.ROT>
6

>  <SCORE.INTER.VDW>
-22.9854

>  <SCORE.INTER.norm>
-0.405919

>  <SCORE.INTRA>
-253.387

>  <SCORE.INTRA.DIHEDRAL>
3.91672

>  <SCORE.INTRA.DIHEDRAL.0>
4.53132

>  <SCORE.INTRA.POLAR>
0

>  <SCORE.INTRA.POLAR.0>
0

>  <SCORE.INTRA.REPUL>
0

>  <SCORE.INTRA.REPUL.0>
0

>  <SCORE.INTRA.VDW>
-255.346

>  <SCORE.INTRA.VDW.0>
252.445

>  <SCORE.INTRA.norm>
-9.04954

>  <SCORE.RESTR>
0

>  <SCORE.RESTR.CAVITY>
0

>  <SCORE.RESTR.norm>
0

>  <SCORE.SYSTEM>
-7.36487

>  <SCORE.SYSTEM.CONST>
0

>  <SCORE.SYSTEM.DIHEDRAL>
9.10782

>  <SCORE.SYSTEM.POLAR>
-4.61818

>  <SCORE.SYSTEM.REPUL>
0.0379986

>  <SCORE.SYSTEM.VDW>
3.59304

>  <SCORE.SYSTEM.norm>
-0.263031

>  <SCORE.heavy>
28

>  <SCORE.norm>
-9.71849

$$$$
F0545-1023
  rDOCK(R)          3D
libRbt.so/2013.1/901 2013/11/27
 28 31  0  0  0  0  0  0  0  0999 V2000
  -26.4631   21.6300   -8.7594 C   0  0  0  0  0  0
  -24.8215   21.1977   -9.6581 C   0  0  0  0  0  0
  -24.9337   20.4790  -11.8331 C   0  0  0  0  0  0
  -25.4534   22.1434  -12.9262 C   0  0  0  0  0  0
  -24.6650   23.6919  -12.4046 N   0  0  0  0  0  0
  -24.8223   24.1641  -10.7686 C   0  0  0  0  0  0
  -24.3779   23.0435   -9.4338 C   0  0  0  0  0  0
  -23.2827   23.9381  -12.8867 C   0  0  0  0  0  0
  -22.9819   24.9146  -13.5766 O   0  0  0  0  0  0
  -22.1736   23.0593  -12.2172 C   0  0  0  0  0  0
  -20.4752   23.3721  -12.9492 S   0  0  0  0  0  0
  -19.9181   21.9423  -13.8693 C   0  0  0  0  0  0
  -19.4318   21.9601  -15.1565 C   0  0  0  0  0  0
  -19.3746   20.6505  -15.6485 N   0  0  0  0  0  0
  -18.9377   20.3555  -17.0055 C   0  0  0  0  0  0
  -17.6903   19.5034  -17.0240 C   0  0  0  0  0  0
  -17.6995   18.2511  -17.6560 C   0  0  0  0  0  0
  -16.5478   17.4602  -17.6850 C   0  0  0  0  0  0
  -15.3824   17.9075  -17.0668 C   0  0  0  0  0  0
  -13.9775   16.9143  -17.0714 Cl  0  0  0  0  0  0
  -15.3521   19.1499  -16.4390 C   0  0  0  0  0  0
  -16.5018   19.9460  -16.4174 C   0  0  0  0  0  0
  -20.0126   19.7621  -14.7732 C   0  0  0  0  0  0
  -19.9209   20.5472  -13.4997 C   0  0  0  0  0  0
  -20.5743   19.8840  -12.0948 C   0  0  0  0  0  0
  -21.5483   18.1746  -11.9392 C   0  0  0  0  0  0
  -21.5826   17.4152  -13.6135 C   0  0  0  0  0  0
  -20.7694   18.2542  -14.9059 C   0  0  0  0  0  0
  1  2  1  0  0  0
  2  3  1  0  0  0
  2  7  1  0  0  0
  3  4  1  0  0  0
  4  5  1  0  0  0
  5  6  1  0  0  0
  5  8  1  0  0  0
  6  7  1  0  0  0
  8  9  2  0  0  0
  8 10  1  0  0  0
 10 11  1  0  0  0
 11 12  1  0  0  0
 12 13  2  0  0  0
 12 24  1  0  0  0
 13 14  1  0  0  0
 14 15  1  0  0  0
 14 23  1  0  0  0
 15 16  1  0  0  0
 16 17  2  0  0  0
 16 22  1  0  0  0
 17 18  1  0  0  0
 18 19  2  0  0  0
 19 20  1  0  0  0
 19 21  1  0  0  0
 21 22  2  0  0  0
 23 24  2  0  0  0
 23 28  1  0  0  0
 24 25  1  0  0  0
 25 26  2  0  0  0
 26 27  1  0  0  0
 27 28  2  0  0  0
M  END
>  <CHROM.0>
-177.28130882,-168.84316054,-164.71139638,62.82879797,167.97772320,-61.05982435
83.16722863,-160.97898178

>  <CHROM.1>
120.12479375,176.96836650,-111.40331950,129.41245762,117.86722914,120.83331556
-20.43741254,20.68661592,-13.96765611,2.80850553,0.64521972,-0.15069240

>  <Name>
F0545-1023

>  <RI>
4.13433e+07

>  <Rbt.Current_Directory>
/home/adria/Escritorio/rDock_CMTR_LC/2pxcA_model/inputs_sah

>  <Rbt.Executable>
rbdock ($Id: //depot/dev/client3/rdock/2013.1/src/exe/rbdock.cxx#4 $)

>  <Rbt.Library>
libRbt.so (2013.1, Build901 2013/11/27)

>  <Rbt.Parameter_File>
/home/adria/Escritorio/rDock_2013.1_src/data/scripts/dock.prm

>  <Rbt.Receptor>
sah_rdock.prm

>  <SCORE>
-271.415

>  <SCORE.INTER>
-17.7041

>  <SCORE.INTER.CONST>
1

>  <SCORE.INTER.POLAR>
-0.894427

>  <SCORE.INTER.REPUL>
0

>  <SCORE.INTER.ROT>
6

>  <SCORE.INTER.VDW>
-26.0631

>  <SCORE.INTER.norm>
-0.63229

>  <SCORE.INTRA>
-252.875

>  <SCORE.INTRA.DIHEDRAL>
4.52125

>  <SCORE.INTRA.DIHEDRAL.0>
4.53132

>  <SCORE.INTRA.POLAR>
0

>  <SCORE.INTRA.POLAR.0>
0

>  <SCORE.INTRA.REPUL>
0

>  <SCORE.INTRA.REPUL.0>
0

>  <SCORE.INTRA.VDW>
-255.136

>  <SCORE.INTRA.VDW.0>
252.445

>  <SCORE.INTRA.norm>
-9.03125

>  <SCORE.RESTR>
0

>  <SCORE.RESTR.CAVITY>
0

>  <SCORE.RESTR.norm>
0

>  <SCORE.SYSTEM>
-0.835556

>  <SCORE.SYSTEM.CONST>
0

>  <SCORE.SYSTEM.DIHEDRAL>
3.59191

>  <SCORE.SYSTEM.POLAR>
-3.5289

>  <SCORE.SYSTEM.VDW>
9.36674

>  <SCORE.SYSTEM.norm>
-0.0298413

>  <SCORE.heavy>
28

>  <SCORE.norm>
-9.69338

$$$$
F0545-1023
  rDOCK(R)          3D
libRbt.so/2013.1/901 2013/11/27
 28 31  0  0  0  0  0  0  0  0999 V2000
  -22.6129   25.3787  -12.2684 C   0  0  0  0  0  0
  -22.4669   23.8285  -13.3931 C   0  0  0  0  0  0
  -20.5265   22.6088  -13.3104 C   0  0  0  0  0  0
  -20.5611   21.6612  -11.4839 C   0  0  0  0  0  0
  -22.1822   21.0323  -10.9663 N   0  0  0  0  0  0
  -23.4954   22.1271  -10.9273 C   0  0  0  0  0  0
  -23.9156   23.1217  -12.3657 C   0  0  0  0  0  0
  -22.6090   19.7277  -11.5317 C   0  0  0  0  0  0
  -23.7938   19.4039  -11.6392 O   0  0  0  0  0  0
  -21.4882   18.9168  -12.2645 C   0  0  0  0  0  0
  -21.3281   19.3920  -14.0720 S   0  0  0  0  0  0
  -20.1784   18.3032  -14.9050 C   0  0  0  0  0  0
  -20.1307   16.9347  -14.7671 C   0  0  0  0  0  0
  -18.9395   16.4541  -15.3242 N   0  0  0  0  0  0
  -18.5879   15.0418  -15.2903 C   0  0  0  0  0  0
  -17.5423   14.6955  -16.3244 C   0  0  0  0  0  0
  -16.4378   13.9046  -15.9750 C   0  0  0  0  0  0
  -15.4705   13.5728  -16.9274 C   0  0  0  0  0  0
  -15.5906   14.0440  -18.2326 C   0  0  0  0  0  0
  -14.3778   13.6654  -19.3928 Cl  0  0  0  0  0  0
  -16.6825   14.8260  -18.6000 C   0  0  0  0  0  0
  -17.6558   15.1509  -17.6496 C   0  0  0  0  0  0
  -18.0837   17.5119  -15.6572 C   0  0  0  0  0  0
  -19.0855   18.6185  -15.7934 C   0  0  0  0  0  0
  -18.5350   20.1594  -16.1972 C   0  0  0  0  0  0
  -16.6570   20.7148  -16.4422 C   0  0  0  0  0  0
  -15.6120   19.2245  -16.1816 C   0  0  0  0  0  0
  -16.4143   17.7147  -15.8468 C   0  0  0  0  0  0
  1  2  1  0  0  0
  2  3  1  0  0  0
  2  7  1  0  0  0
  3  4  1  0  0  0
  4  5  1  0  0  0
  5  6  1  0  0  0
  5  8  1  0  0  0
  6  7  1  0  0  0
  8  9  2  0  0  0
  8 10  1  0  0  0
 10 11  1  0  0  0
 11 12  1  0  0  0
 12 13  2  0  0  0
 12 24  1  0  0  0
 13 14  1  0  0  0
 14 15  1  0  0  0
 14 23  1  0  0  0
 15 16  1  0  0  0
 16 17  2  0  0  0
 16 22  1  0  0  0
 17 18  1  0  0  0
 18 19  2  0  0  0
 19 20  1  0  0  0
 19 21  1  0  0  0
 21 22  2  0  0  0
 23 24  2  0  0  0
 23 28  1  0  0  0
 24 25  1  0  0  0
 25 26  2  0  0  0
 26 27  1  0  0  0
 27 28  2  0  0  0
M  END
>  <CHROM.0>
-62.40007347,-167.05887148,-44.21015079,-65.12551383,-31.53285056,-61.36802412
-157.65834545,-158.47952347

>  <CHROM.1>
-155.03634349,-87.04371083,-173.13291974,44.04134356,160.54702841,133.81525506
-19.23623958,18.36165154,-14.91067508,-2.40882846,-0.67808260,-3.10124275

>  <Name>
F0545-1023

>  <RI>
4.13433e+07

>  <Rbt.Current_Directory>
/home/adria/Escritorio/rDock_CMTR_LC/2pxcA_model/inputs_sah

>  <Rbt.Executable>
rbdock ($Id: //depot/dev/client3/rdock/2013.1/src/exe/rbdock.cxx#4 $)

>  <Rbt.Library>
libRbt.so (2013.1, Build901 2013/11/27)

>  <Rbt.Parameter_File>
/home/adria/Escritorio/rDock_2013.1_src/data/scripts/dock.prm

>  <Rbt.Receptor>
sah_rdock.prm

>  <SCORE>
-269.096

>  <SCORE.INTER>
-10.234

>  <SCORE.INTER.CONST>
1

>  <SCORE.INTER.POLAR>
0

>  <SCORE.INTER.REPUL>
0.042623

>  <SCORE.INTER.ROT>
6

>  <SCORE.INTER.VDW>
-21.8472

>  <SCORE.INTER.norm>
-0.365501

>  <SCORE.INTRA>
-252.622

>  <SCORE.INTRA.DIHEDRAL>
2.89109

>  <SCORE.INTRA.DIHEDRAL.0>
4.53132

>  <SCORE.INTRA.POLAR>
0

>  <SCORE.INTRA.POLAR.0>
0

>  <SCORE.INTRA.REPUL>
0

>  <SCORE.INTRA.REPUL.0>
0

>  <SCORE.INTRA.VDW>
-254.067

>  <SCORE.INTRA.VDW.0>
252.445

>  <SCORE.INTRA.norm>
-9.0222

>  <SCORE.RESTR>
0

>  <SCORE.RESTR.CAVITY>
0

>  <SCORE.RESTR.norm>
0

>  <SCORE.SYSTEM>
-6.24042

>  <SCORE.SYSTEM.CONST>
0

>  <SCORE.SYSTEM.DIHEDRAL>
6.59298

>  <SCORE.SYSTEM.POLAR>
-3.72099

>  <SCORE.SYSTEM.VDW>
3.11445

>  <SCORE.SYSTEM.norm>
-0.222872

>  <SCORE.heavy>
28

>  <SCORE.norm>
-9.61057

$$$$
F0545-1023
  rDOCK(R)          3D
libRbt.so/2013.1/901 2013/11/27
 28 31  0  0  0  0  0  0  0  0999 V2000
  -18.1806   12.8189  -19.0957 C   0  0  0  0  0  0
  -18.6480   14.3946  -18.1017 C   0  0  0  0  0  0
  -18.0544   14.4953  -15.8887 C   0  0  0  0  0  0
  -16.0094   14.7266  -15.8877 C   0  0  0  0  0  0
  -15.3523   15.8294  -17.1696 N   0  0  0  0  0  0
  -15.7652   15.5074  -18.7975 C   0  0  0  0  0  0
  -17.4827   15.3234  -19.2989 C   0  0  0  0  0  0
  -15.4106   17.2874  -16.8966 C   0  0  0  0  0  0
  -14.4809   18.0525  -17.1622 O   0  0  0  0  0  0
  -16.8287   17.8455  -16.5388 C   0  0  0  0  0  0
  -16.7677   19.6230  -15.9428 S   0  0  0  0  0  0
  -18.2931   20.0572  -15.1147 C   0  0  0  0  0  0
  -18.3920   20.5925  -13.8508 C   0  0  0  0  0  0
  -19.7232   20.5265  -13.4223 N   0  0  0  0  0  0
  -20.1309   20.9816  -12.1009 C   0  0  0  0  0  0
  -20.8011   22.3346  -12.1519 C   0  0  0  0  0  0
  -21.8597   22.5656  -13.0427 C   0  0  0  0  0  0
  -22.4906   23.8116  -13.0904 C   0  0  0  0  0  0
  -22.0562   24.8422  -12.2601 C   0  0  0  0  0  0
  -22.8100   26.3863  -12.3487 Cl  0  0  0  0  0  0
  -21.0104   24.6307  -11.3654 C   0  0  0  0  0  0
  -20.3845   23.3812  -11.3107 C   0  0  0  0  0  0
  -20.4936   19.7622  -14.3082 C   0  0  0  0  0  0
  -19.6597   19.8887  -15.5473 C   0  0  0  0  0  0
  -20.1781   19.1128  -16.9507 C   0  0  0  0  0  0
  -21.7641   17.9537  -17.1411 C   0  0  0  0  0  0
  -22.5987   17.9028  -15.5034 C   0  0  0  0  0  0
  -21.9171   18.8521  -14.2112 C   0  0  0  0  0  0
  1  2  1  0  0  0
  2  3  1  0  0  0
  2  7  1  0  0  0
  3  4  1  0  0  0
  4  5  1  0  0  0
  5  6  1  0  0  0
  5  8  1  0  0  0
  6  7  1  0  0  0
  8  9  2  0  0  0
  8 10  1  0  0  0
 10 11  1  0  0  0
 11 12  1  0  0  0
 12 13  2  0  0  0
 12 24  1  0  0  0
 13 14  1  0  0  0
 14 15  1  0  0  0
 14 23  1  0  0  0
 15 16  1  0  0  0
 16 17  2  0  0  0
 16 22  1  0  0  0
 17 18  1  0  0  0
 18 19  2  0  0  0
 19 20  1  0  0  0
 19 21  1  0  0  0
 21 22  2  0  0  0
 23 24  2  0  0  0
 23 28  1  0  0  0
 24 25  1  0  0  0
 25 26  2  0  0  0
 26 27  1  0  0  0
 27 28  2  0  0  0
M  END
>  <CHROM.0>
-64.98843377,-76.09503547,-165.48797986,67.04665349,35.25247213,-56.08962345
-157.44185831,-165.51996090

>  <CHROM.1>
138.03170248,170.76813914,-163.71155499,126.64191765,102.58660232,51.23216112
-19.20481752,19.56328436,-15.10820983,1.11480761,-0.06551390,-2.62958572

>  <Name>
F0545-1023

>  <RI>
4.13433e+07

>  <Rbt.Current_Directory>
/home/adria/Escritorio/rDock_CMTR_LC/2pxcA_model/inputs_sah

>  <Rbt.Executable>
rbdock ($Id: //depot/dev/client3/rdock/2013.1/src/exe/rbdock.cxx#4 $)

>  <Rbt.Library>
libRbt.so (2013.1, Build901 2013/11/27)

>  <Rbt.Parameter_File>
/home/adria/Escritorio/rDock_2013.1_src/data/scripts/dock.prm

>  <Rbt.Receptor>
sah_rdock.prm

>  <SCORE>
-264.064

>  <SCORE.INTER>
-14.735

>  <SCORE.INTER.CONST>
1

>  <SCORE.INTER.POLAR>
0

>  <SCORE.INTER.REPUL>
0

>  <SCORE.INTER.ROT>
6

>  <SCORE.INTER.VDW>
-26.135

>  <SCORE.INTER.norm>
-0.526251

>  <SCORE.INTRA>
-253.668

>  <SCORE.INTRA.DIHEDRAL>
2.46479

>  <SCORE.INTRA.DIHEDRAL.0>
4.53132

>  <SCORE.INTRA.POLAR>
0

>  <SCORE.INTRA.POLAR.0>
0

>  <SCORE.INTRA.REPUL>
0

>  <SCORE.INTRA.REPUL.0>
0

>  <SCORE.INTRA.VDW>
-254.901

>  <SCORE.INTRA.VDW.0>
252.445

>  <SCORE.INTRA.norm>
-9.05958

>  <SCORE.RESTR>
0

>  <SCORE.RESTR.CAVITY>
0

>  <SCORE.RESTR.norm>
0

>  <SCORE.SYSTEM>
4.33925

>  <SCORE.SYSTEM.CONST>
0

>  <SCORE.SYSTEM.DIHEDRAL>
6.14042

>  <SCORE.SYSTEM.POLAR>
-3.75535

>  <SCORE.SYSTEM.REPUL>
0.0435879

>  <SCORE.SYSTEM.VDW>
13.8193

>  <SCORE.SYSTEM.norm>
0.154973

>  <SCORE.heavy>
28

>  <SCORE.norm>
-9.43085

$$$$
