F0917-3007
  rDOCK(R)          3D
libRbt.so/2013.1/901 2013/11/27
 31 33  0  0  0  0  0  0  0  0999 V2000
  -23.7840   20.5951   -8.7556 C   0  0  0  0  0  0
  -25.2047   22.2374   -9.1089 C   0  0  0  0  0  0
  -25.0632   23.5051  -10.0214 O   0  0  0  0  0  0
  -24.9621   23.6520  -11.3980 C   0  0  0  0  0  0
  -25.3866   22.8520  -12.4975 C   0  0  0  0  0  0
  -24.8989   23.2318  -13.7832 C   0  0  0  0  0  0
  -24.0770   24.3318  -14.0204 C   0  0  0  0  0  0
  -23.6690   25.1003  -12.9546 C   0  0  0  0  0  0
  -24.1099   24.7665  -11.6700 C   0  0  0  0  0  0
  -26.1668   21.6334  -12.5120 N   0  0  0  0  0  0
  -27.2454   21.4611  -11.5480 C   0  0  0  0  0  0
  -26.1389   20.5797  -13.4125 C   0  0  0  0  0  0
  -26.8072   19.5526  -13.3067 O   0  0  0  0  0  0
  -25.2611   20.6367  -14.5435 C   0  0  0  0  0  0
  -25.9408   21.6065  -15.9101 C   0  0  0  0  0  0
  -26.8895   22.5277  -15.7106 F   0  0  0  0  0  0
  -25.4502   21.2510  -17.5897 C   0  0  0  0  0  0
  -24.2433   19.9743  -17.9238 C   0  0  0  0  0  0
  -23.5463   19.0052  -16.5838 C   0  0  0  0  0  0
  -23.9789   19.3816  -14.8657 C   0  0  0  0  0  0
  -22.1847   17.9482  -16.8662 S   0  0  0  0  0  0
  -21.9698   17.2714  -15.6067 O   0  0  0  0  0  0
  -22.4322   17.2271  -18.0877 O   0  0  0  0  0  0
  -20.8867   18.9986  -17.0311 N   0  0  0  0  0  0
  -19.4627   18.6128  -16.9873 C   0  0  0  0  0  0
  -18.6009   19.8928  -16.9040 C   0  0  0  0  0  0
  -18.5891   20.5619  -15.5223 C   0  0  0  0  0  0
  -18.4193   19.5835  -14.3618 C   0  0  0  0  0  0
  -19.3454   18.3820  -14.4799 C   0  0  0  0  0  0
  -19.1235   17.6922  -15.8184 C   0  0  0  0  0  0
  -21.1449   19.9703  -16.8647 H   0  0  0  0  0  0
  1  2  1  0  0  0
  2  3  1  0  0  0
  3  4  1  0  0  0
  4  5  2  0  0  0
  4  9  1  0  0  0
  5  6  1  0  0  0
  5 10  1  0  0  0
  6  7  2  0  0  0
  7  8  1  0  0  0
  8  9  2  0  0  0
 10 11  1  0  0  0
 10 12  1  0  0  0
 12 13  2  0  0  0
 12 14  1  0  0  0
 14 15  2  0  0  0
 14 20  1  0  0  0
 15 16  1  0  0  0
 15 17  1  0  0  0
 17 18  2  0  0  0
 18 19  1  0  0  0
 19 20  2  0  0  0
 19 21  1  0  0  0
 21 22  2  0  0  0
 21 23  2  0  0  0
 21 24  1  0  0  0
 24 25  1  0  0  0
 24 31  1  0  0  0
 25 26  1  0  0  0
 25 30  1  0  0  0
 26 27  1  0  0  0
 27 28  1  0  0  0
 28 29  1  0  0  0
 29 30  1  0  0  0
M  END
>  <CHROM.0>
-63.78312775,66.32389686,-6.98894676,65.55190973,168.50218406,-60.44931398
83.14208836,-162.30244816

>  <CHROM.1>
65.62586298,25.37070690,36.14935623,-81.67322030,-175.88193769,165.64889534
-169.16128392,-23.40901674,20.63648871,-14.42795040,-2.26270613,0.25659567
-2.09081721

>  <Name>
F0917-3007

>  <RI>
2.30137e+07

>  <Rbt.Current_Directory>
/home/adria/Escritorio/rDock_CMTR_LC/2pxcA_model/inputs_sah

>  <Rbt.Executable>
rbdock ($Id: //depot/dev/client3/rdock/2013.1/src/exe/rbdock.cxx#4 $)

>  <Rbt.Library>
libRbt.so (2013.1, Build901 2013/11/27)

>  <Rbt.Parameter_File>
/home/adria/Escritorio/rDock_2013.1_src/data/scripts/dock.prm

>  <Rbt.Receptor>
sah_rdock.prm

>  <SCORE>
-196.019

>  <SCORE.INTER>
-13.2951

>  <SCORE.INTER.CONST>
1

>  <SCORE.INTER.POLAR>
-1.03078

>  <SCORE.INTER.REPUL>
0.150884

>  <SCORE.INTER.ROT>
7

>  <SCORE.INTER.VDW>
-22.9449

>  <SCORE.INTER.norm>
-0.44317

>  <SCORE.INTRA>
-181.036

>  <SCORE.INTRA.DIHEDRAL>
5.02921

>  <SCORE.INTRA.DIHEDRAL.0>
14.9174

>  <SCORE.INTRA.POLAR>
0

>  <SCORE.INTRA.POLAR.0>
0

>  <SCORE.INTRA.REPUL>
0

>  <SCORE.INTRA.REPUL.0>
0

>  <SCORE.INTRA.VDW>
-183.55

>  <SCORE.INTRA.VDW.0>
181.593

>  <SCORE.INTRA.norm>
-6.03452

>  <SCORE.RESTR>
0.28951

>  <SCORE.RESTR.CAVITY>
0.28951

>  <SCORE.RESTR.norm>
0.00965034

>  <SCORE.SYSTEM>
-1.97827

>  <SCORE.SYSTEM.CONST>
0

>  <SCORE.SYSTEM.DIHEDRAL>
6.14241

>  <SCORE.SYSTEM.POLAR>
-4.18432

>  <SCORE.SYSTEM.VDW>
9.17721

>  <SCORE.SYSTEM.norm>
-0.0659424

>  <SCORE.heavy>
30

>  <SCORE.norm>
-6.53398

$$$$
F0917-3007
  rDOCK(R)          3D
libRbt.so/2013.1/901 2013/11/27
 31 33  0  0  0  0  0  0  0  0999 V2000
  -26.2096   21.6284   -8.4228 C   0  0  0  0  0  0
  -25.5707   23.7184   -8.6759 C   0  0  0  0  0  0
  -24.2886   24.2967   -9.3699 O   0  0  0  0  0  0
  -23.7911   24.1653  -10.6592 C   0  0  0  0  0  0
  -24.3636   23.7170  -11.8840 C   0  0  0  0  0  0
  -23.4599   23.5133  -12.9689 C   0  0  0  0  0  0
  -22.0884   23.7523  -12.9071 C   0  0  0  0  0  0
  -21.5406   24.1840  -11.7211 C   0  0  0  0  0  0
  -22.3803   24.3906  -10.6219 C   0  0  0  0  0  0
  -25.7252   23.3311  -12.1856 N   0  0  0  0  0  0
  -26.8219   24.2070  -11.7953 C   0  0  0  0  0  0
  -26.1932   22.2578  -12.9280 C   0  0  0  0  0  0
  -27.3815   21.9798  -13.0813 O   0  0  0  0  0  0
  -25.2605   21.3666  -13.5515 C   0  0  0  0  0  0
  -25.6801   21.0050  -15.2729 C   0  0  0  0  0  0
  -26.4561   21.8240  -15.9910 F   0  0  0  0  0  0
  -25.1730   19.4606  -16.0116 C   0  0  0  0  0  0
  -24.2005   18.2900  -15.0721 C   0  0  0  0  0  0
  -23.7625   18.6304  -13.3654 C   0  0  0  0  0  0
  -24.2109   20.2132  -12.6075 C   0  0  0  0  0  0
  -22.6011   17.6290  -12.5293 S   0  0  0  0  0  0
  -22.8524   17.8594  -11.1241 O   0  0  0  0  0  0
  -22.6564   16.3120  -13.1087 O   0  0  0  0  0  0
  -21.1293   18.3712  -12.8429 N   0  0  0  0  0  0
  -20.4728   18.4461  -14.1628 C   0  0  0  0  0  0
  -21.0054   19.6860  -14.9158 C   0  0  0  0  0  0
  -20.4369   21.0231  -14.4200 C   0  0  0  0  0  0
  -18.9289   21.0034  -14.1787 C   0  0  0  0  0  0
  -18.4886   19.7876  -13.3768 C   0  0  0  0  0  0
  -18.9509   18.5168  -14.0756 C   0  0  0  0  0  0
  -20.5721   18.5089  -12.0009 H   0  0  0  0  0  0
  1  2  1  0  0  0
  2  3  1  0  0  0
  3  4  1  0  0  0
  4  5  2  0  0  0
  4  9  1  0  0  0
  5  6  1  0  0  0
  5 10  1  0  0  0
  6  7  2  0  0  0
  7  8  1  0  0  0
  8  9  2  0  0  0
 10 11  1  0  0  0
 10 12  1  0  0  0
 12 13  2  0  0  0
 12 14  1  0  0  0
 14 15  2  0  0  0
 14 20  1  0  0  0
 15 16  1  0  0  0
 15 17  1  0  0  0
 17 18  2  0  0  0
 18 19  1  0  0  0
 19 20  2  0  0  0
 19 21  1  0  0  0
 21 22  2  0  0  0
 21 23  2  0  0  0
 21 24  1  0  0  0
 24 25  1  0  0  0
 24 31  1  0  0  0
 25 26  1  0  0  0
 25 30  1  0  0  0
 26 27  1  0  0  0
 27 28  1  0  0  0
 28 29  1  0  0  0
 29 30  1  0  0  0
M  END
>  <CHROM.0>
41.71223599,-173.09084627,76.77099918,-61.78546590,-32.02711418,-179.39822135
-38.35792078,-46.89123198

>  <CHROM.1>
57.63223785,15.58552167,49.61908550,-133.46288347,-159.81428436,-67.66044323
86.75454337,-23.39694813,20.97022330,-12.77237854,-2.24307735,0.15944171
-2.54963865

>  <Name>
F0917-3007

>  <RI>
2.30137e+07

>  <Rbt.Current_Directory>
/home/adria/Escritorio/rDock_CMTR_LC/2pxcA_model/inputs_sah

>  <Rbt.Executable>
rbdock ($Id: //depot/dev/client3/rdock/2013.1/src/exe/rbdock.cxx#4 $)

>  <Rbt.Library>
libRbt.so (2013.1, Build901 2013/11/27)

>  <Rbt.Parameter_File>
/home/adria/Escritorio/rDock_2013.1_src/data/scripts/dock.prm

>  <Rbt.Receptor>
sah_rdock.prm

>  <SCORE>
-190.738

>  <SCORE.INTER>
-6.55421

>  <SCORE.INTER.CONST>
1

>  <SCORE.INTER.POLAR>
0

>  <SCORE.INTER.REPUL>
0

>  <SCORE.INTER.ROT>
7

>  <SCORE.INTER.VDW>
-18.9542

>  <SCORE.INTER.norm>
-0.218474

>  <SCORE.INTRA>
-184.49

>  <SCORE.INTRA.DIHEDRAL>
4.35052

>  <SCORE.INTRA.DIHEDRAL.0>
14.9174

>  <SCORE.INTRA.POLAR>
0

>  <SCORE.INTRA.POLAR.0>
0

>  <SCORE.INTRA.REPUL>
0

>  <SCORE.INTRA.REPUL.0>
0

>  <SCORE.INTRA.VDW>
-186.665

>  <SCORE.INTRA.VDW.0>
181.593

>  <SCORE.INTRA.norm>
-6.14965

>  <SCORE.RESTR>
0

>  <SCORE.RESTR.CAVITY>
0

>  <SCORE.RESTR.norm>
0

>  <SCORE.SYSTEM>
0.305977

>  <SCORE.SYSTEM.CONST>
0

>  <SCORE.SYSTEM.DIHEDRAL>
9.24027

>  <SCORE.SYSTEM.POLAR>
-3.27822

>  <SCORE.SYSTEM.REPUL>
0.136947

>  <SCORE.SYSTEM.VDW>
6.14707

>  <SCORE.SYSTEM.norm>
0.0101992

>  <SCORE.heavy>
30

>  <SCORE.norm>
-6.35792

$$$$
F0917-3007
  rDOCK(R)          3D
libRbt.so/2013.1/901 2013/11/27
 31 33  0  0  0  0  0  0  0  0999 V2000
  -24.1084   19.4132  -17.3484 C   0  0  0  0  0  0
  -21.9710   19.0404  -16.9835 C   0  0  0  0  0  0
  -21.0004   19.7081  -15.9482 O   0  0  0  0  0  0
  -21.0629   19.8398  -14.5677 C   0  0  0  0  0  0
  -22.0777   19.5637  -13.6070 C   0  0  0  0  0  0
  -21.8459   20.0449  -12.2842 C   0  0  0  0  0  0
  -20.6975   20.7249  -11.8834 C   0  0  0  0  0  0
  -19.7211   20.9900  -12.8158 C   0  0  0  0  0  0
  -19.9018   20.5493  -14.1307 C   0  0  0  0  0  0
  -23.3766   18.9497  -13.7795 N   0  0  0  0  0  0
  -23.4703   17.6284  -14.3859 C   0  0  0  0  0  0
  -24.6194   19.3780  -13.3389 C   0  0  0  0  0  0
  -25.6820   18.8104  -13.5868 O   0  0  0  0  0  0
  -24.7217   20.5786  -12.5636 C   0  0  0  0  0  0
  -26.1677   20.5907  -11.4778 C   0  0  0  0  0  0
  -26.7681   19.4573  -11.0992 F   0  0  0  0  0  0
  -26.9120   22.1408  -10.9970 C   0  0  0  0  0  0
  -26.1987   23.6885  -11.5395 C   0  0  0  0  0  0
  -24.7576   23.7030  -12.6090 C   0  0  0  0  0  0
  -23.9450   22.1498  -13.0649 C   0  0  0  0  0  0
  -23.9011   25.1919  -12.9258 S   0  0  0  0  0  0
  -22.8712   24.8354  -13.8760 O   0  0  0  0  0  0
  -24.8782   26.2117  -13.2059 O   0  0  0  0  0  0
  -23.0899   25.5034  -11.4904 N   0  0  0  0  0  0
  -22.6287   24.4825  -10.5292 C   0  0  0  0  0  0
  -21.4329   23.7214  -11.1445 C   0  0  0  0  0  0
  -20.1112   24.5024  -11.1375 C   0  0  0  0  0  0
  -19.8217   25.2178   -9.8194 C   0  0  0  0  0  0
  -21.0249   25.9972   -9.3095 C   0  0  0  0  0  0
  -22.2220   25.0663   -9.1791 C   0  0  0  0  0  0
  -23.2003   26.4673  -11.1786 H   0  0  0  0  0  0
  1  2  1  0  0  0
  2  3  1  0  0  0
  3  4  1  0  0  0
  4  5  2  0  0  0
  4  9  1  0  0  0
  5  6  1  0  0  0
  5 10  1  0  0  0
  6  7  2  0  0  0
  7  8  1  0  0  0
  8  9  2  0  0  0
 10 11  1  0  0  0
 10 12  1  0  0  0
 12 13  2  0  0  0
 12 14  1  0  0  0
 14 15  2  0  0  0
 14 20  1  0  0  0
 15 16  1  0  0  0
 15 17  1  0  0  0
 17 18  2  0  0  0
 18 19  1  0  0  0
 19 20  2  0  0  0
 19 21  1  0  0  0
 21 22  2  0  0  0
 21 23  2  0  0  0
 21 24  1  0  0  0
 24 25  1  0  0  0
 24 31  1  0  0  0
 25 26  1  0  0  0
 25 30  1  0  0  0
 26 27  1  0  0  0
 27 28  1  0  0  0
 28 29  1  0  0  0
 29 30  1  0  0  0
M  END
>  <CHROM.0>
-55.09658802,63.64233852,-128.43927378,61.42329296,168.45457916,-65.98908351
-156.76131637,-165.51561841

>  <CHROM.1>
55.72813613,-8.42535042,55.86705510,-153.65953935,-176.53325721,28.72088027
71.45073351,-23.10742717,22.07135912,-12.71762259,1.69283719,-0.15984545
-2.59329409

>  <Name>
F0917-3007

>  <RI>
2.30137e+07

>  <Rbt.Current_Directory>
/home/adria/Escritorio/rDock_CMTR_LC/2pxcA_model/inputs_sah

>  <Rbt.Executable>
rbdock ($Id: //depot/dev/client3/rdock/2013.1/src/exe/rbdock.cxx#4 $)

>  <Rbt.Library>
libRbt.so (2013.1, Build901 2013/11/27)

>  <Rbt.Parameter_File>
/home/adria/Escritorio/rDock_2013.1_src/data/scripts/dock.prm

>  <Rbt.Receptor>
sah_rdock.prm

>  <SCORE>
-203.991

>  <SCORE.INTER>
-17.1492

>  <SCORE.INTER.CONST>
1

>  <SCORE.INTER.POLAR>
-2.02763

>  <SCORE.INTER.REPUL>
0

>  <SCORE.INTER.ROT>
7

>  <SCORE.INTER.VDW>
-22.6553

>  <SCORE.INTER.norm>
-0.571641

>  <SCORE.INTRA>
-184.98

>  <SCORE.INTRA.DIHEDRAL>
2.70974

>  <SCORE.INTRA.DIHEDRAL.0>
14.9174

>  <SCORE.INTRA.POLAR>
0

>  <SCORE.INTRA.POLAR.0>
0

>  <SCORE.INTRA.REPUL>
0

>  <SCORE.INTRA.REPUL.0>
0

>  <SCORE.INTRA.VDW>
-186.335

>  <SCORE.INTRA.VDW.0>
181.593

>  <SCORE.INTRA.norm>
-6.16601

>  <SCORE.RESTR>
0

>  <SCORE.RESTR.CAVITY>
0

>  <SCORE.RESTR.norm>
0

>  <SCORE.SYSTEM>
-1.86153

>  <SCORE.SYSTEM.CONST>
0

>  <SCORE.SYSTEM.DIHEDRAL>
5.82219

>  <SCORE.SYSTEM.POLAR>
-4.18691

>  <SCORE.SYSTEM.VDW>
9.46286

>  <SCORE.SYSTEM.norm>
-0.062051

>  <SCORE.heavy>
30

>  <SCORE.norm>
-6.79971

$$$$
F0917-3007
  rDOCK(R)          3D
libRbt.so/2013.1/901 2013/11/27
 31 33  0  0  0  0  0  0  0  0999 V2000
  -18.6874   14.6994  -17.7515 C   0  0  0  0  0  0
  -19.4975   16.4036  -16.6201 C   0  0  0  0  0  0
  -18.7495   17.6140  -15.9604 O   0  0  0  0  0  0
  -19.1663   18.5833  -15.0583 C   0  0  0  0  0  0
  -20.4175   19.2218  -14.8223 C   0  0  0  0  0  0
  -20.4004   20.3436  -13.9413 C   0  0  0  0  0  0
  -19.2624   20.8176  -13.2916 C   0  0  0  0  0  0
  -18.0562   20.1979  -13.5242 C   0  0  0  0  0  0
  -18.0142   19.0985  -14.3876 C   0  0  0  0  0  0
  -21.7123   18.9755  -15.4196 N   0  0  0  0  0  0
  -21.8207   18.8408  -16.8661 C   0  0  0  0  0  0
  -22.9300   18.7175  -14.8089 C   0  0  0  0  0  0
  -23.9953   18.5763  -15.4071 O   0  0  0  0  0  0
  -23.0027   18.6323  -13.3805 C   0  0  0  0  0  0
  -23.4758   16.9864  -12.7997 C   0  0  0  0  0  0
  -23.3036   15.8997  -13.5599 F   0  0  0  0  0  0
  -24.3181   16.7975  -11.2368 C   0  0  0  0  0  0
  -24.6471   18.2265  -10.2130 C   0  0  0  0  0  0
  -24.1781   19.8693  -10.7625 C   0  0  0  0  0  0
  -23.2698   20.0867  -12.3144 C   0  0  0  0  0  0
  -24.2524   21.2278   -9.6671 S   0  0  0  0  0  0
  -25.6498   21.3478   -9.3153 O   0  0  0  0  0  0
  -23.2274   21.0484   -8.6720 O   0  0  0  0  0  0
  -23.9272   22.5520  -10.6449 N   0  0  0  0  0  0
  -24.5686   23.8766  -10.5329 C   0  0  0  0  0  0
  -23.5384   24.8847   -9.9756 C   0  0  0  0  0  0
  -22.4848   25.3444  -10.9932 C   0  0  0  0  0  0
  -23.0587   25.6885  -12.3662 C   0  0  0  0  0  0
  -24.0137   24.6197  -12.8768 C   0  0  0  0  0  0
  -25.1218   24.3923  -11.8584 C   0  0  0  0  0  0
  -23.4699   22.2921  -11.5178 H   0  0  0  0  0  0
  1  2  1  0  0  0
  2  3  1  0  0  0
  3  4  1  0  0  0
  4  5  2  0  0  0
  4  9  1  0  0  0
  5  6  1  0  0  0
  5 10  1  0  0  0
  6  7  2  0  0  0
  7  8  1  0  0  0
  8  9  2  0  0  0
 10 11  1  0  0  0
 10 12  1  0  0  0
 12 13  2  0  0  0
 12 14  1  0  0  0
 14 15  2  0  0  0
 14 20  1  0  0  0
 15 16  1  0  0  0
 15 17  1  0  0  0
 17 18  2  0  0  0
 18 19  1  0  0  0
 19 20  2  0  0  0
 19 21  1  0  0  0
 21 22  2  0  0  0
 21 23  2  0  0  0
 21 24  1  0  0  0
 24 25  1  0  0  0
 24 31  1  0  0  0
 25 26  1  0  0  0
 25 30  1  0  0  0
 26 27  1  0  0  0
 27 28  1  0  0  0
 28 29  1  0  0  0
 29 30  1  0  0  0
M  END
>  <CHROM.0>
-63.13486467,-167.02270492,74.77555615,63.19900594,27.68714954,179.48331525
-37.55113542,-166.43088899

>  <CHROM.1>
-167.48102126,-31.66592597,-46.91157887,-115.81290763,-62.61692574,142.18942700
108.65403845,-22.40505669,20.14149996,-12.83497269,0.91534019,-0.72176963
-2.88033852

>  <Name>
F0917-3007

>  <RI>
2.30137e+07

>  <Rbt.Current_Directory>
/home/adria/Escritorio/rDock_CMTR_LC/2pxcA_model/inputs_sah

>  <Rbt.Executable>
rbdock ($Id: //depot/dev/client3/rdock/2013.1/src/exe/rbdock.cxx#4 $)

>  <Rbt.Library>
libRbt.so (2013.1, Build901 2013/11/27)

>  <Rbt.Parameter_File>
/home/adria/Escritorio/rDock_2013.1_src/data/scripts/dock.prm

>  <Rbt.Receptor>
sah_rdock.prm

>  <SCORE>
-180.226

>  <SCORE.INTER>
-5.91273

>  <SCORE.INTER.CONST>
1

>  <SCORE.INTER.POLAR>
0

>  <SCORE.INTER.REPUL>
0.00137656

>  <SCORE.INTER.ROT>
7

>  <SCORE.INTER.VDW>
-18.3196

>  <SCORE.INTER.norm>
-0.197091

>  <SCORE.INTRA>
-179.66

>  <SCORE.INTRA.DIHEDRAL>
10.6173

>  <SCORE.INTRA.DIHEDRAL.0>
14.9174

>  <SCORE.INTRA.POLAR>
0

>  <SCORE.INTRA.POLAR.0>
0

>  <SCORE.INTRA.REPUL>
0

>  <SCORE.INTRA.REPUL.0>
0

>  <SCORE.INTRA.VDW>
-184.968

>  <SCORE.INTRA.VDW.0>
181.593

>  <SCORE.INTRA.norm>
-5.98866

>  <SCORE.RESTR>
0.00663206

>  <SCORE.RESTR.CAVITY>
0.00663206

>  <SCORE.RESTR.norm>
0.000221069

>  <SCORE.SYSTEM>
5.33942

>  <SCORE.SYSTEM.CONST>
0

>  <SCORE.SYSTEM.DIHEDRAL>
6.81706

>  <SCORE.SYSTEM.POLAR>
-3.48567

>  <SCORE.SYSTEM.VDW>
13.7822

>  <SCORE.SYSTEM.norm>
0.177981

>  <SCORE.heavy>
30

>  <SCORE.norm>
-6.00754

$$$$
F0917-3007
  rDOCK(R)          3D
libRbt.so/2013.1/901 2013/11/27
 31 33  0  0  0  0  0  0  0  0999 V2000
  -25.2100   19.4223   -9.8876 C   0  0  0  0  0  0
  -23.0599   19.8637  -10.0395 C   0  0  0  0  0  0
  -22.3288   21.2433  -10.1876 O   0  0  0  0  0  0
  -22.4147   22.2415  -11.1485 C   0  0  0  0  0  0
  -23.4240   22.6103  -12.0834 C   0  0  0  0  0  0
  -23.0520   23.5687  -13.0725 C   0  0  0  0  0  0
  -21.7980   24.1713  -13.1530 C   0  0  0  0  0  0
  -20.8265   23.8103  -12.2481 C   0  0  0  0  0  0
  -21.1347   22.8669  -11.2627 C   0  0  0  0  0  0
  -24.7618   22.0877  -12.2593 N   0  0  0  0  0  0
  -25.9006   22.8519  -11.7678 C   0  0  0  0  0  0
  -25.1857   20.9676  -12.9578 C   0  0  0  0  0  0
  -26.3491   20.5708  -13.0018 O   0  0  0  0  0  0
  -24.2293   20.1700  -13.6664 C   0  0  0  0  0  0
  -24.9526   18.6699  -14.3713 C   0  0  0  0  0  0
  -26.2644   18.5718  -14.6120 F   0  0  0  0  0  0
  -23.9366   17.2254  -14.6339 C   0  0  0  0  0  0
  -22.1894   17.2728  -14.2548 C   0  0  0  0  0  0
  -21.4460   18.7530  -13.5642 C   0  0  0  0  0  0
  -22.4373   20.2525  -13.3423 C   0  0  0  0  0  0
  -19.7100   18.9005  -13.4396 S   0  0  0  0  0  0
  -19.4910   19.8223  -12.3473 O   0  0  0  0  0  0
  -19.1535   17.5725  -13.4410 O   0  0  0  0  0  0
  -19.2770   19.7440  -14.8239 N   0  0  0  0  0  0
  -19.7917   19.4814  -16.1821 C   0  0  0  0  0  0
  -18.8134   20.0887  -17.2128 C   0  0  0  0  0  0
  -17.5216   19.2839  -17.4135 C   0  0  0  0  0  0
  -17.7427   17.7772  -17.5318 C   0  0  0  0  0  0
  -18.6643   17.2422  -16.4457 C   0  0  0  0  0  0
  -19.9860   17.9966  -16.4762 C   0  0  0  0  0  0
  -18.4047   20.2590  -14.7127 H   0  0  0  0  0  0
  1  2  1  0  0  0
  2  3  1  0  0  0
  3  4  1  0  0  0
  4  5  2  0  0  0
  4  9  1  0  0  0
  5  6  1  0  0  0
  5 10  1  0  0  0
  6  7  2  0  0  0
  7  8  1  0  0  0
  8  9  2  0  0  0
 10 11  1  0  0  0
 10 12  1  0  0  0
 12 13  2  0  0  0
 12 14  1  0  0  0
 14 15  2  0  0  0
 14 20  1  0  0  0
 15 16  1  0  0  0
 15 17  1  0  0  0
 17 18  2  0  0  0
 18 19  1  0  0  0
 19 20  2  0  0  0
 19 21  1  0  0  0
 21 22  2  0  0  0
 21 23  2  0  0  0
 21 24  1  0  0  0
 24 25  1  0  0  0
 24 31  1  0  0  0
 25 26  1  0  0  0
 25 30  1  0  0  0
 26 27  1  0  0  0
 27 28  1  0  0  0
 28 29  1  0  0  0
 29 30  1  0  0  0
M  END
>  <CHROM.0>
-176.66276963,-73.12713530,110.17965376,-61.37486109,33.91030551,-179.68989057
-36.82089103,-162.02552902

>  <CHROM.1>
-58.88111829,23.11194002,103.20961268,174.25791206,-154.05869566,-44.26376338
-159.84698970,-21.94995886,20.06900181,-13.55138134,2.45494079,0.25619534
0.64516590

>  <Name>
F0917-3007

>  <RI>
2.30137e+07

>  <Rbt.Current_Directory>
/home/adria/Escritorio/rDock_CMTR_LC/2pxcA_model/inputs_sah

>  <Rbt.Executable>
rbdock ($Id: //depot/dev/client3/rdock/2013.1/src/exe/rbdock.cxx#4 $)

>  <Rbt.Library>
libRbt.so (2013.1, Build901 2013/11/27)

>  <Rbt.Parameter_File>
/home/adria/Escritorio/rDock_2013.1_src/data/scripts/dock.prm

>  <Rbt.Receptor>
sah_rdock.prm

>  <SCORE>
-189.114

>  <SCORE.INTER>
-8.92474

>  <SCORE.INTER.CONST>
1

>  <SCORE.INTER.POLAR>
-0.824621

>  <SCORE.INTER.REPUL>
0.0242442

>  <SCORE.INTER.ROT>
7

>  <SCORE.INTER.VDW>
-18.6423

>  <SCORE.INTER.norm>
-0.297491

>  <SCORE.INTRA>
-185.259

>  <SCORE.INTRA.DIHEDRAL>
2.64083

>  <SCORE.INTRA.DIHEDRAL.0>
14.9174

>  <SCORE.INTRA.POLAR>
0

>  <SCORE.INTRA.POLAR.0>
0

>  <SCORE.INTRA.REPUL>
0

>  <SCORE.INTRA.REPUL.0>
0

>  <SCORE.INTRA.VDW>
-186.58

>  <SCORE.INTRA.VDW.0>
181.593

>  <SCORE.INTRA.norm>
-6.17531

>  <SCORE.RESTR>
0

>  <SCORE.RESTR.CAVITY>
0

>  <SCORE.RESTR.norm>
0

>  <SCORE.SYSTEM>
5.07024

>  <SCORE.SYSTEM.CONST>
0

>  <SCORE.SYSTEM.DIHEDRAL>
8.74506

>  <SCORE.SYSTEM.POLAR>
-4.29444

>  <SCORE.SYSTEM.REPUL>
0.0387618

>  <SCORE.SYSTEM.VDW>
15.105

>  <SCORE.SYSTEM.norm>
0.169008

>  <SCORE.heavy>
30

>  <SCORE.norm>
-6.30379

$$$$
F0917-3007
  rDOCK(R)          3D
libRbt.so/2013.1/901 2013/11/27
 31 33  0  0  0  0  0  0  0  0999 V2000
  -18.6819   16.4673  -16.9325 C   0  0  0  0  0  0
  -19.1023   17.5236  -15.0489 C   0  0  0  0  0  0
  -20.2568   18.5259  -14.6989 O   0  0  0  0  0  0
  -20.5612   19.2231  -13.5377 C   0  0  0  0  0  0
  -21.7699   19.4285  -12.8126 C   0  0  0  0  0  0
  -21.7265   20.4025  -11.7711 C   0  0  0  0  0  0
  -20.5884   21.1225  -11.4131 C   0  0  0  0  0  0
  -19.4239   20.9210  -12.1177 C   0  0  0  0  0  0
  -19.4134   19.9842  -13.1561 C   0  0  0  0  0  0
  -23.0880   18.8719  -13.0288 N   0  0  0  0  0  0
  -23.2188   17.4917  -13.4766 C   0  0  0  0  0  0
  -24.3320   19.4220  -12.7604 C   0  0  0  0  0  0
  -25.4056   18.8884  -13.0349 O   0  0  0  0  0  0
  -24.4184   20.7150  -12.1493 C   0  0  0  0  0  0
  -25.8829   20.9001  -11.1047 C   0  0  0  0  0  0
  -26.5178   19.8390  -10.5954 F   0  0  0  0  0  0
  -26.5972   22.5156  -10.8442 C   0  0  0  0  0  0
  -25.8362   23.9635  -11.5673 C   0  0  0  0  0  0
  -24.3763   23.8071  -12.5992 C   0  0  0  0  0  0
  -23.5943   22.1902  -12.8332 C   0  0  0  0  0  0
  -23.4777   25.2229  -13.0880 S   0  0  0  0  0  0
  -23.4771   25.1844  -14.5334 O   0  0  0  0  0  0
  -23.9955   26.3487  -12.3546 O   0  0  0  0  0  0
  -21.8999   24.8747  -12.6355 N   0  0  0  0  0  0
  -21.5041   24.0480  -11.4786 C   0  0  0  0  0  0
  -20.0838   24.4618  -11.0318 C   0  0  0  0  0  0
  -20.0213   25.7883  -10.2616 C   0  0  0  0  0  0
  -21.1099   25.9406   -9.2012 C   0  0  0  0  0  0
  -22.4884   25.5771   -9.7329 C   0  0  0  0  0  0
  -22.4644   24.1641  -10.2983 C   0  0  0  0  0  0
  -21.2240   25.5210  -13.0404 H   0  0  0  0  0  0
  1  2  1  0  0  0
  2  3  1  0  0  0
  3  4  1  0  0  0
  4  5  2  0  0  0
  4  9  1  0  0  0
  5  6  1  0  0  0
  5 10  1  0  0  0
  6  7  2  0  0  0
  7  8  1  0  0  0
  8  9  2  0  0  0
 10 11  1  0  0  0
 10 12  1  0  0  0
 12 13  2  0  0  0
 12 14  1  0  0  0
 14 15  2  0  0  0
 14 20  1  0  0  0
 15 16  1  0  0  0
 15 17  1  0  0  0
 17 18  2  0  0  0
 18 19  1  0  0  0
 19 20  2  0  0  0
 19 21  1  0  0  0
 21 22  2  0  0  0
 21 23  2  0  0  0
 21 24  1  0  0  0
 24 25  1  0  0  0
 24 31  1  0  0  0
 25 26  1  0  0  0
 25 30  1  0  0  0
 26 27  1  0  0  0
 27 28  1  0  0  0
 28 29  1  0  0  0
 29 30  1  0  0  0
M  END
>  <CHROM.0>
-60.47774339,-76.03692467,-8.65264636,139.04413237,167.60556739,62.57235606
-36.61311790,-163.79933523

>  <CHROM.1>
-179.48817364,-133.42075081,37.12258247,-149.08969346,-122.43219577,-31.47600311
-155.08241721,-22.57438963,21.93995438,-12.39048507,-1.30047824,0.20759000
0.32427840

>  <Name>
F0917-3007

>  <RI>
2.30137e+07

>  <Rbt.Current_Directory>
/home/adria/Escritorio/rDock_CMTR_LC/2pxcA_model/inputs_sah

>  <Rbt.Executable>
rbdock ($Id: //depot/dev/client3/rdock/2013.1/src/exe/rbdock.cxx#4 $)

>  <Rbt.Library>
libRbt.so (2013.1, Build901 2013/11/27)

>  <Rbt.Parameter_File>
/home/adria/Escritorio/rDock_2013.1_src/data/scripts/dock.prm

>  <Rbt.Receptor>
sah_rdock.prm

>  <SCORE>
-193.974

>  <SCORE.INTER>
-12.152

>  <SCORE.INTER.CONST>
1

>  <SCORE.INTER.POLAR>
-0.936705

>  <SCORE.INTER.REPUL>
0.107506

>  <SCORE.INTER.ROT>
7

>  <SCORE.INTER.VDW>
-21.9047

>  <SCORE.INTER.norm>
-0.405066

>  <SCORE.INTRA>
-182.686

>  <SCORE.INTRA.DIHEDRAL>
1.23166

>  <SCORE.INTRA.DIHEDRAL.0>
14.9174

>  <SCORE.INTRA.POLAR>
0

>  <SCORE.INTRA.POLAR.0>
0

>  <SCORE.INTRA.REPUL>
0

>  <SCORE.INTRA.REPUL.0>
0

>  <SCORE.INTRA.VDW>
-183.302

>  <SCORE.INTRA.VDW.0>
181.593

>  <SCORE.INTRA.norm>
-6.08953

>  <SCORE.RESTR>
0.000494204

>  <SCORE.RESTR.CAVITY>
0.000494204

>  <SCORE.RESTR.norm>
1.64735e-05

>  <SCORE.SYSTEM>
0.863046

>  <SCORE.SYSTEM.CONST>
0

>  <SCORE.SYSTEM.DIHEDRAL>
12.4807

>  <SCORE.SYSTEM.POLAR>
-4.60663

>  <SCORE.SYSTEM.REPUL>
0.0435019

>  <SCORE.SYSTEM.VDW>
10.0677

>  <SCORE.SYSTEM.norm>
0.0287682

>  <SCORE.heavy>
30

>  <SCORE.norm>
-6.46581

$$$$
F0917-3007
  rDOCK(R)          3D
libRbt.so/2013.1/901 2013/11/27
 31 33  0  0  0  0  0  0  0  0999 V2000
  -26.1259   23.6224   -8.3789 C   0  0  0  0  0  0
  -26.4654   22.5433  -10.2659 C   0  0  0  0  0  0
  -25.4394   21.8120  -11.1999 O   0  0  0  0  0  0
  -24.3483   22.2743  -11.9230 C   0  0  0  0  0  0
  -23.0046   21.8211  -12.0566 C   0  0  0  0  0  0
  -22.1032   22.6997  -12.7279 C   0  0  0  0  0  0
  -22.4626   23.9307  -13.2732 C   0  0  0  0  0  0
  -23.7617   24.3640  -13.1402 C   0  0  0  0  0  0
  -24.6852   23.5458  -12.4816 C   0  0  0  0  0  0
  -22.3678   20.6355  -11.5247 N   0  0  0  0  0  0
  -22.7104   20.1775  -10.1848 C   0  0  0  0  0  0
  -21.5162   19.7371  -12.1489 C   0  0  0  0  0  0
  -20.9768   18.7829  -11.5910 O   0  0  0  0  0  0
  -21.1904   19.9136  -13.5330 C   0  0  0  0  0  0
  -22.5314   19.4129  -14.6381 C   0  0  0  0  0  0
  -23.7994   19.3531  -14.2175 F   0  0  0  0  0  0
  -22.1640   18.8503  -16.2923 C   0  0  0  0  0  0
  -20.4761   18.8329  -16.8831 C   0  0  0  0  0  0
  -19.1289   19.3348  -15.8091 C   0  0  0  0  0  0
  -19.4748   19.9666  -14.1472 C   0  0  0  0  0  0
  -17.5221   19.5737  -16.4511 S   0  0  0  0  0  0
  -17.7254   19.9910  -17.8205 O   0  0  0  0  0  0
  -16.7860   20.3769  -15.5096 O   0  0  0  0  0  0
  -16.8931   18.0214  -16.5504 N   0  0  0  0  0  0
  -15.4756   17.6584  -16.3564 C   0  0  0  0  0  0
  -15.0980   16.5584  -17.3740 C   0  0  0  0  0  0
  -14.9000   17.0627  -18.8104 C   0  0  0  0  0  0
  -14.0842   18.3503  -18.9077 C   0  0  0  0  0  0
  -14.5554   19.4079  -17.9206 C   0  0  0  0  0  0
  -14.5243   18.8420  -16.5080 C   0  0  0  0  0  0
  -17.5074   17.3804  -17.0507 H   0  0  0  0  0  0
  1  2  1  0  0  0
  2  3  1  0  0  0
  3  4  1  0  0  0
  4  5  2  0  0  0
  4  9  1  0  0  0
  5  6  1  0  0  0
  5 10  1  0  0  0
  6  7  2  0  0  0
  7  8  1  0  0  0
  8  9  2  0  0  0
 10 11  1  0  0  0
 10 12  1  0  0  0
 12 13  2  0  0  0
 12 14  1  0  0  0
 14 15  2  0  0  0
 14 20  1  0  0  0
 15 16  1  0  0  0
 15 17  1  0  0  0
 17 18  2  0  0  0
 18 19  1  0  0  0
 19 20  2  0  0  0
 19 21  1  0  0  0
 21 22  2  0  0  0
 21 23  2  0  0  0
 21 24  1  0  0  0
 24 25  1  0  0  0
 24 31  1  0  0  0
 25 26  1  0  0  0
 25 30  1  0  0  0
 26 27  1  0  0  0
 27 28  1  0  0  0
 28 29  1  0  0  0
 29 30  1  0  0  0
M  END
>  <CHROM.0>
-178.84680552,-73.42009470,-8.66953399,64.78420669,31.43792421,-178.70432301
-36.40161982,-164.25218584

>  <CHROM.1>
-62.39497573,132.12100777,-38.35711449,-76.08487248,29.61153272,-146.85320084
-141.30260275,-20.27756522,20.18825430,-14.37878348,-2.95684730,-0.67005056
2.88003305

>  <Name>
F0917-3007

>  <RI>
2.30137e+07

>  <Rbt.Current_Directory>
/home/adria/Escritorio/rDock_CMTR_LC/2pxcA_model/inputs_sah

>  <Rbt.Executable>
rbdock ($Id: //depot/dev/client3/rdock/2013.1/src/exe/rbdock.cxx#4 $)

>  <Rbt.Library>
libRbt.so (2013.1, Build901 2013/11/27)

>  <Rbt.Parameter_File>
/home/adria/Escritorio/rDock_2013.1_src/data/scripts/dock.prm

>  <Rbt.Receptor>
sah_rdock.prm

>  <SCORE>
-189.315

>  <SCORE.INTER>
-12.6977

>  <SCORE.INTER.CONST>
1

>  <SCORE.INTER.POLAR>
-0.846795

>  <SCORE.INTER.REPUL>
0.0582032

>  <SCORE.INTER.ROT>
7

>  <SCORE.INTER.VDW>
-22.5096

>  <SCORE.INTER.norm>
-0.423256

>  <SCORE.INTRA>
-181.442

>  <SCORE.INTRA.DIHEDRAL>
7.1016

>  <SCORE.INTRA.DIHEDRAL.0>
14.9174

>  <SCORE.INTRA.POLAR>
0

>  <SCORE.INTRA.POLAR.0>
0

>  <SCORE.INTRA.REPUL>
0

>  <SCORE.INTRA.REPUL.0>
0

>  <SCORE.INTRA.VDW>
-184.992

>  <SCORE.INTRA.VDW.0>
181.593

>  <SCORE.INTRA.norm>
-6.04805

>  <SCORE.RESTR>
0

>  <SCORE.RESTR.CAVITY>
0

>  <SCORE.RESTR.norm>
0

>  <SCORE.SYSTEM>
4.82419

>  <SCORE.SYSTEM.CONST>
0

>  <SCORE.SYSTEM.DIHEDRAL>
9.28428

>  <SCORE.SYSTEM.POLAR>
-4.33792

>  <SCORE.SYSTEM.REPUL>
0.0392771

>  <SCORE.SYSTEM.VDW>
14.7346

>  <SCORE.SYSTEM.norm>
0.160806

>  <SCORE.heavy>
30

>  <SCORE.norm>
-6.3105

$$$$
F0917-3007
  rDOCK(R)          3D
libRbt.so/2013.1/901 2013/11/27
 31 33  0  0  0  0  0  0  0  0999 V2000
  -18.7164   20.3152  -16.3988 C   0  0  0  0  0  0
  -19.0135   19.9346  -14.2524 C   0  0  0  0  0  0
  -20.3427   19.7202  -13.4479 O   0  0  0  0  0  0
  -21.3028   18.7185  -13.4904 C   0  0  0  0  0  0
  -22.0581   18.1365  -14.5486 C   0  0  0  0  0  0
  -23.1245   17.2703  -14.1641 C   0  0  0  0  0  0
  -23.4397   16.9463  -12.8460 C   0  0  0  0  0  0
  -22.7075   17.5123  -11.8278 C   0  0  0  0  0  0
  -21.6563   18.3772  -12.1484 C   0  0  0  0  0  0
  -21.9831   18.3626  -15.9759 N   0  0  0  0  0  0
  -20.9165   17.7367  -16.7459 C   0  0  0  0  0  0
  -22.8705   19.0232  -16.8115 C   0  0  0  0  0  0
  -22.6887   19.2136  -18.0129 O   0  0  0  0  0  0
  -24.0824   19.5650  -16.2723 C   0  0  0  0  0  0
  -25.0690   20.4418  -17.5084 C   0  0  0  0  0  0
  -24.9295   20.1987  -18.8160 F   0  0  0  0  0  0
  -26.1623   21.7617  -17.0079 C   0  0  0  0  0  0
  -26.3296   22.1848  -15.2783 C   0  0  0  0  0  0
  -25.3692   21.3224  -14.0315 C   0  0  0  0  0  0
  -24.2972   19.9401  -14.5013 C   0  0  0  0  0  0
  -25.7160   21.5413  -12.3337 S   0  0  0  0  0  0
  -26.9971   22.2108  -12.2974 O   0  0  0  0  0  0
  -25.4940   20.2817  -11.6724 O   0  0  0  0  0  0
  -24.6006   22.6935  -11.8399 N   0  0  0  0  0  0
  -24.8772   24.1329  -11.6660 C   0  0  0  0  0  0
  -24.5652   24.5283  -10.2050 C   0  0  0  0  0  0
  -23.0686   24.6515   -9.8859 C   0  0  0  0  0  0
  -22.2681   25.3995  -10.9502 C   0  0  0  0  0  0
  -22.5814   24.9116  -12.3569 C   0  0  0  0  0  0
  -24.0773   25.0193  -12.6164 C   0  0  0  0  0  0
  -23.6373   22.3817  -11.9556 H   0  0  0  0  0  0
  1  2  1  0  0  0
  2  3  1  0  0  0
  3  4  1  0  0  0
  4  5  2  0  0  0
  4  9  1  0  0  0
  5  6  1  0  0  0
  5 10  1  0  0  0
  6  7  2  0  0  0
  7  8  1  0  0  0
  8  9  2  0  0  0
 10 11  1  0  0  0
 10 12  1  0  0  0
 12 13  2  0  0  0
 12 14  1  0  0  0
 14 15  2  0  0  0
 14 20  1  0  0  0
 15 16  1  0  0  0
 15 17  1  0  0  0
 17 18  2  0  0  0
 18 19  1  0  0  0
 19 20  2  0  0  0
 19 21  1  0  0  0
 21 22  2  0  0  0
 21 23  2  0  0  0
 21 24  1  0  0  0
 24 25  1  0  0  0
 24 31  1  0  0  0
 25 26  1  0  0  0
 25 30  1  0  0  0
 26 27  1  0  0  0
 27 28  1  0  0  0
 28 29  1  0  0  0
 29 30  1  0  0  0
M  END
>  <CHROM.0>
-63.14374229,-71.31301778,75.37778829,63.44691831,169.09408010,175.17275487
-158.14343268,-163.31239481

>  <CHROM.1>
65.31256687,-51.99681839,78.27681380,177.72437943,12.89280862,99.81063401
121.31572480,-23.46969368,20.80283667,-13.95340359,-1.18158349,-0.51681397
0.93666949

>  <Name>
F0917-3007

>  <RI>
2.30137e+07

>  <Rbt.Current_Directory>
/home/adria/Escritorio/rDock_CMTR_LC/2pxcA_model/inputs_sah

>  <Rbt.Executable>
rbdock ($Id: //depot/dev/client3/rdock/2013.1/src/exe/rbdock.cxx#4 $)

>  <Rbt.Library>
libRbt.so (2013.1, Build901 2013/11/27)

>  <Rbt.Parameter_File>
/home/adria/Escritorio/rDock_2013.1_src/data/scripts/dock.prm

>  <Rbt.Receptor>
sah_rdock.prm

>  <SCORE>
-192.77

>  <SCORE.INTER>
-7.04633

>  <SCORE.INTER.CONST>
1

>  <SCORE.INTER.POLAR>
0

>  <SCORE.INTER.REPUL>
0.208627

>  <SCORE.INTER.ROT>
7

>  <SCORE.INTER.VDW>
-20.4895

>  <SCORE.INTER.norm>
-0.234878

>  <SCORE.INTRA>
-182.762

>  <SCORE.INTRA.DIHEDRAL>
4.75178

>  <SCORE.INTRA.DIHEDRAL.0>
14.9174

>  <SCORE.INTRA.POLAR>
0

>  <SCORE.INTRA.POLAR.0>
0

>  <SCORE.INTRA.REPUL>
0

>  <SCORE.INTRA.REPUL.0>
0

>  <SCORE.INTRA.VDW>
-185.137

>  <SCORE.INTRA.VDW.0>
181.593

>  <SCORE.INTRA.norm>
-6.09205

>  <SCORE.RESTR>
0

>  <SCORE.RESTR.CAVITY>
0

>  <SCORE.RESTR.norm>
0

>  <SCORE.SYSTEM>
-2.96255

>  <SCORE.SYSTEM.CONST>
0

>  <SCORE.SYSTEM.DIHEDRAL>
3.35274

>  <SCORE.SYSTEM.POLAR>
-3.97273

>  <SCORE.SYSTEM.REPUL>
0.0353848

>  <SCORE.SYSTEM.VDW>
8.69143

>  <SCORE.SYSTEM.norm>
-0.0987517

>  <SCORE.heavy>
30

>  <SCORE.norm>
-6.42568

$$$$
F0917-3007
  rDOCK(R)          3D
libRbt.so/2013.1/901 2013/11/27
 31 33  0  0  0  0  0  0  0  0999 V2000
  -20.0360   25.2426   -9.9463 C   0  0  0  0  0  0
  -22.1376   25.5684   -9.3824 C   0  0  0  0  0  0
  -23.4345   24.8493   -9.8929 O   0  0  0  0  0  0
  -23.8520   23.5272   -9.8233 C   0  0  0  0  0  0
  -24.7702   22.7533  -10.5893 C   0  0  0  0  0  0
  -25.1047   21.4681  -10.0683 C   0  0  0  0  0  0
  -24.5727   20.9296   -8.8982 C   0  0  0  0  0  0
  -23.6871   21.6821   -8.1616 C   0  0  0  0  0  0
  -23.3319   22.9541   -8.6218 C   0  0  0  0  0  0
  -25.5109   23.1043  -11.7818 N   0  0  0  0  0  0
  -26.0965   24.4333  -11.8970 C   0  0  0  0  0  0
  -25.6775   22.3897  -12.9581 C   0  0  0  0  0  0
  -26.3789   22.7513  -13.9016 O   0  0  0  0  0  0
  -25.0298   21.1213  -13.1149 C   0  0  0  0  0  0
  -26.1955   19.7394  -13.1552 C   0  0  0  0  0  0
  -27.4802   19.9167  -13.4816 F   0  0  0  0  0  0
  -25.6774   18.1166  -12.6201 C   0  0  0  0  0  0
  -23.9904   17.8375  -12.0962 C   0  0  0  0  0  0
  -22.8120   19.1905  -12.0573 C   0  0  0  0  0  0
  -23.2908   20.8337  -12.6501 C   0  0  0  0  0  0
  -21.1116   18.8811  -11.8051 S   0  0  0  0  0  0
  -20.5528   20.1577  -11.4195 O   0  0  0  0  0  0
  -20.9949   17.7134  -10.9707 O   0  0  0  0  0  0
  -20.5221   18.5882  -13.3485 N   0  0  0  0  0  0
  -20.8413   17.4091  -14.1770 C   0  0  0  0  0  0
  -22.2797   17.5567  -14.7225 C   0  0  0  0  0  0
  -22.4218   18.5593  -15.8763 C   0  0  0  0  0  0
  -21.3298   18.4411  -16.9375 C   0  0  0  0  0  0
  -19.9380   18.3652  -16.3274 C   0  0  0  0  0  0
  -19.8728   17.2093  -15.3393 C   0  0  0  0  0  0
  -19.6887   19.1351  -13.5604 H   0  0  0  0  0  0
  1  2  1  0  0  0
  2  3  1  0  0  0
  3  4  1  0  0  0
  4  5  2  0  0  0
  4  9  1  0  0  0
  5  6  1  0  0  0
  5 10  1  0  0  0
  6  7  2  0  0  0
  7  8  1  0  0  0
  8  9  2  0  0  0
 10 11  1  0  0  0
 10 12  1  0  0  0
 12 13  2  0  0  0
 12 14  1  0  0  0
 14 15  2  0  0  0
 14 20  1  0  0  0
 15 16  1  0  0  0
 15 17  1  0  0  0
 17 18  2  0  0  0
 18 19  1  0  0  0
 19 20  2  0  0  0
 19 21  1  0  0  0
 21 22  2  0  0  0
 21 23  2  0  0  0
 21 24  1  0  0  0
 24 25  1  0  0  0
 24 31  1  0  0  0
 25 26  1  0  0  0
 25 30  1  0  0  0
 26 27  1  0  0  0
 27 28  1  0  0  0
 28 29  1  0  0  0
 29 30  1  0  0  0
M  END
>  <CHROM.0>
175.46468843,-72.83666971,108.68566370,61.15805501,168.47761247,-58.76647683
67.51939459,-167.70726816

>  <CHROM.1>
62.04443558,-157.15265339,-40.25629445,111.87501865,-162.63145760,-68.54807562
74.48119546,-23.18789452,20.64176956,-12.21517390,-1.97206956,0.24930617
-2.38781360

>  <Name>
F0917-3007

>  <RI>
2.30137e+07

>  <Rbt.Current_Directory>
/home/adria/Escritorio/rDock_CMTR_LC/2pxcA_model/inputs_sah

>  <Rbt.Executable>
rbdock ($Id: //depot/dev/client3/rdock/2013.1/src/exe/rbdock.cxx#4 $)

>  <Rbt.Library>
libRbt.so (2013.1, Build901 2013/11/27)

>  <Rbt.Parameter_File>
/home/adria/Escritorio/rDock_2013.1_src/data/scripts/dock.prm

>  <Rbt.Receptor>
sah_rdock.prm

>  <SCORE>
-197.195

>  <SCORE.INTER>
-12.5651

>  <SCORE.INTER.CONST>
1

>  <SCORE.INTER.POLAR>
-2.15718

>  <SCORE.INTER.REPUL>
0.107581

>  <SCORE.INTER.ROT>
7

>  <SCORE.INTER.VDW>
-18.1685

>  <SCORE.INTER.norm>
-0.418835

>  <SCORE.INTRA>
-183.376

>  <SCORE.INTRA.DIHEDRAL>
5.34559

>  <SCORE.INTRA.DIHEDRAL.0>
14.9174

>  <SCORE.INTRA.POLAR>
0

>  <SCORE.INTRA.POLAR.0>
0

>  <SCORE.INTRA.REPUL>
0

>  <SCORE.INTRA.REPUL.0>
0

>  <SCORE.INTRA.VDW>
-186.049

>  <SCORE.INTRA.VDW.0>
181.593

>  <SCORE.INTRA.norm>
-6.11255

>  <SCORE.RESTR>
0

>  <SCORE.RESTR.CAVITY>
0

>  <SCORE.RESTR.norm>
0

>  <SCORE.SYSTEM>
-1.25317

>  <SCORE.SYSTEM.CONST>
0

>  <SCORE.SYSTEM.DIHEDRAL>
5.17897

>  <SCORE.SYSTEM.POLAR>
-3.97665

>  <SCORE.SYSTEM.REPUL>
0.0382425

>  <SCORE.SYSTEM.VDW>
9.48674

>  <SCORE.SYSTEM.norm>
-0.0417724

>  <SCORE.heavy>
30

>  <SCORE.norm>
-6.57316

$$$$
F0917-3007
  rDOCK(R)          3D
libRbt.so/2013.1/901 2013/11/27
 31 33  0  0  0  0  0  0  0  0999 V2000
  -23.9450   24.8528  -13.8560 C   0  0  0  0  0  0
  -22.5309   25.0812  -12.1860 C   0  0  0  0  0  0
  -22.7911   25.0352  -10.6400 O   0  0  0  0  0  0
  -23.4142   24.0952   -9.8306 C   0  0  0  0  0  0
  -24.6119   23.3356   -9.9630 C   0  0  0  0  0  0
  -25.0431   22.6250   -8.8035 C   0  0  0  0  0  0
  -24.3585   22.6085   -7.5899 C   0  0  0  0  0  0
  -23.2028   23.3450   -7.4673 C   0  0  0  0  0  0
  -22.7399   24.0689   -8.5708 C   0  0  0  0  0  0
  -25.5352   23.2446  -11.0734 N   0  0  0  0  0  0
  -26.5737   24.2547  -11.2271 C   0  0  0  0  0  0
  -25.5359   22.3706  -12.1497 C   0  0  0  0  0  0
  -26.4039   22.3356  -13.0204 O   0  0  0  0  0  0
  -24.4869   21.4032  -12.2781 C   0  0  0  0  0  0
  -24.7642   19.9302  -11.2663 C   0  0  0  0  0  0
  -25.9878   19.5877  -10.8495 F   0  0  0  0  0  0
  -23.3754   18.9711  -10.6836 C   0  0  0  0  0  0
  -21.7089   19.4288  -11.1439 C   0  0  0  0  0  0
  -21.4084   20.8802  -12.1557 C   0  0  0  0  0  0
  -22.7988   21.8383  -12.8111 C   0  0  0  0  0  0
  -19.8245   21.1836  -12.8264 S   0  0  0  0  0  0
  -19.9497   22.4434  -13.5250 O   0  0  0  0  0  0
  -18.8566   20.9844  -11.7790 O   0  0  0  0  0  0
  -19.6676   20.0244  -14.0293 N   0  0  0  0  0  0
  -19.7627   20.2784  -15.4802 C   0  0  0  0  0  0
  -18.3576   20.6306  -16.0186 C   0  0  0  0  0  0
  -17.4141   19.4285  -16.1662 C   0  0  0  0  0  0
  -18.0680   18.2023  -16.7999 C   0  0  0  0  0  0
  -19.4173   17.8800  -16.1749 C   0  0  0  0  0  0
  -20.3277   19.0966  -16.2630 C   0  0  0  0  0  0
  -19.7994   19.0762  -13.6799 H   0  0  0  0  0  0
  1  2  1  0  0  0
  2  3  1  0  0  0
  3  4  1  0  0  0
  4  5  2  0  0  0
  4  9  1  0  0  0
  5  6  1  0  0  0
  5 10  1  0  0  0
  6  7  2  0  0  0
  7  8  1  0  0  0
  8  9  2  0  0  0
 10 11  1  0  0  0
 10 12  1  0  0  0
 12 13  2  0  0  0
 12 14  1  0  0  0
 14 15  2  0  0  0
 14 20  1  0  0  0
 15 16  1  0  0  0
 15 17  1  0  0  0
 17 18  2  0  0  0
 18 19  1  0  0  0
 19 20  2  0  0  0
 19 21  1  0  0  0
 21 22  2  0  0  0
 21 23  2  0  0  0
 21 24  1  0  0  0
 24 25  1  0  0  0
 24 31  1  0  0  0
 25 26  1  0  0  0
 25 30  1  0  0  0
 26 27  1  0  0  0
 27 28  1  0  0  0
 28 29  1  0  0  0
 29 30  1  0  0  0
M  END
>  <CHROM.0>
-56.21036831,-68.41958505,87.91342605,67.44613399,167.42284896,-167.23713643
-37.48106766,-158.51925585

>  <CHROM.1>
53.09683533,-43.30199305,-83.44348407,81.92347917,-177.88256272,105.37472277
89.26029862,-22.30759637,21.62210339,-12.29725463,-2.37257942,-0.32249014
-2.48164746

>  <Name>
F0917-3007

>  <RI>
2.30137e+07

>  <Rbt.Current_Directory>
/home/adria/Escritorio/rDock_CMTR_LC/2pxcA_model/inputs_sah

>  <Rbt.Executable>
rbdock ($Id: //depot/dev/client3/rdock/2013.1/src/exe/rbdock.cxx#4 $)

>  <Rbt.Library>
libRbt.so (2013.1, Build901 2013/11/27)

>  <Rbt.Parameter_File>
/home/adria/Escritorio/rDock_2013.1_src/data/scripts/dock.prm

>  <Rbt.Receptor>
sah_rdock.prm

>  <SCORE>
-188.631

>  <SCORE.INTER>
-7.16469

>  <SCORE.INTER.CONST>
1

>  <SCORE.INTER.POLAR>
0

>  <SCORE.INTER.REPUL>
0

>  <SCORE.INTER.ROT>
7

>  <SCORE.INTER.VDW>
-19.5647

>  <SCORE.INTER.norm>
-0.238823

>  <SCORE.INTRA>
-179.781

>  <SCORE.INTRA.DIHEDRAL>
15.5458

>  <SCORE.INTRA.DIHEDRAL.0>
14.9174

>  <SCORE.INTRA.POLAR>
0

>  <SCORE.INTRA.POLAR.0>
0

>  <SCORE.INTRA.REPUL>
0

>  <SCORE.INTRA.REPUL.0>
0

>  <SCORE.INTRA.VDW>
-187.554

>  <SCORE.INTRA.VDW.0>
181.593

>  <SCORE.INTRA.norm>
-5.99269

>  <SCORE.RESTR>
0

>  <SCORE.RESTR.CAVITY>
0

>  <SCORE.RESTR.norm>
0

>  <SCORE.SYSTEM>
-1.68575

>  <SCORE.SYSTEM.CONST>
0

>  <SCORE.SYSTEM.DIHEDRAL>
5.18609

>  <SCORE.SYSTEM.POLAR>
-3.97458

>  <SCORE.SYSTEM.REPUL>
0.0293518

>  <SCORE.SYSTEM.VDW>
9.08802

>  <SCORE.SYSTEM.norm>
-0.0561915

>  <SCORE.heavy>
30

>  <SCORE.norm>
-6.2877

$$$$
F0917-3007
  rDOCK(R)          3D
libRbt.so/2013.1/901 2013/11/27
 31 33  0  0  0  0  0  0  0  0999 V2000
  -17.4763   19.3255  -16.1045 C   0  0  0  0  0  0
  -18.6967   17.8786  -14.9830 C   0  0  0  0  0  0
  -20.0618   18.0842  -14.2386 O   0  0  0  0  0  0
  -20.4432   18.9456  -13.2191 C   0  0  0  0  0  0
  -21.6639   19.1373  -12.5104 C   0  0  0  0  0  0
  -21.7348   20.2878  -11.6699 C   0  0  0  0  0  0
  -20.6920   21.1935  -11.4848 C   0  0  0  0  0  0
  -19.5156   21.0041  -12.1728 C   0  0  0  0  0  0
  -19.3956   19.8969  -13.0187 C   0  0  0  0  0  0
  -22.9045   18.3960  -12.5815 N   0  0  0  0  0  0
  -22.9471   17.1381  -13.3151 C   0  0  0  0  0  0
  -24.1102   18.6318  -11.9389 C   0  0  0  0  0  0
  -25.1335   17.9711  -12.1096 O   0  0  0  0  0  0
  -24.2245   19.7312  -11.0272 C   0  0  0  0  0  0
  -24.7202   19.2157   -9.3663 C   0  0  0  0  0  0
  -24.5300   17.9638   -8.9361 F   0  0  0  0  0  0
  -25.6080   20.3459   -8.3068 C   0  0  0  0  0  0
  -25.9611   22.0094   -8.8604 C   0  0  0  0  0  0
  -25.4705   22.5481  -10.5004 C   0  0  0  0  0  0
  -24.5169   21.4451  -11.5750 C   0  0  0  0  0  0
  -25.5715   24.2330  -10.9496 S   0  0  0  0  0  0
  -26.6347   24.2957  -11.9276 O   0  0  0  0  0  0
  -25.6015   25.0112   -9.7385 O   0  0  0  0  0  0
  -24.1591   24.5050  -11.8136 N   0  0  0  0  0  0
  -22.8397   23.9210  -11.5025 C   0  0  0  0  0  0
  -21.7384   24.8444  -12.0704 C   0  0  0  0  0  0
  -21.5007   26.1245  -11.2570 C   0  0  0  0  0  0
  -21.4490   25.8981   -9.7473 C   0  0  0  0  0  0
  -22.6000   25.0341   -9.2536 C   0  0  0  0  0  0
  -22.6103   23.7124  -10.0083 C   0  0  0  0  0  0
  -24.2094   25.3408  -12.3946 H   0  0  0  0  0  0
  1  2  1  0  0  0
  2  3  1  0  0  0
  3  4  1  0  0  0
  4  5  2  0  0  0
  4  9  1  0  0  0
  5  6  1  0  0  0
  5 10  1  0  0  0
  6  7  2  0  0  0
  7  8  1  0  0  0
  8  9  2  0  0  0
 10 11  1  0  0  0
 10 12  1  0  0  0
 12 13  2  0  0  0
 12 14  1  0  0  0
 14 15  2  0  0  0
 14 20  1  0  0  0
 15 16  1  0  0  0
 15 17  1  0  0  0
 17 18  2  0  0  0
 18 19  1  0  0  0
 19 20  2  0  0  0
 19 21  1  0  0  0
 21 22  2  0  0  0
 21 23  2  0  0  0
 21 24  1  0  0  0
 24 25  1  0  0  0
 24 31  1  0  0  0
 25 26  1  0  0  0
 25 30  1  0  0  0
 26 27  1  0  0  0
 27 28  1  0  0  0
 28 29  1  0  0  0
 29 30  1  0  0  0
M  END
>  <CHROM.0>
-60.97105469,-71.76079275,-168.15081371,65.44616342,-29.85847531,-57.70178498
-157.31081362,-51.62152871

>  <CHROM.1>
-57.35167187,-178.68772632,10.19835865,-121.94175796,-111.04523237,-37.58100837
-154.97027129,-22.95796829,21.41585821,-11.52214577,-0.90890118,0.51741398
0.15685266

>  <Name>
F0917-3007

>  <RI>
2.30137e+07

>  <Rbt.Current_Directory>
/home/adria/Escritorio/rDock_CMTR_LC/2pxcA_model/inputs_sah

>  <Rbt.Executable>
rbdock ($Id: //depot/dev/client3/rdock/2013.1/src/exe/rbdock.cxx#4 $)

>  <Rbt.Library>
libRbt.so (2013.1, Build901 2013/11/27)

>  <Rbt.Parameter_File>
/home/adria/Escritorio/rDock_2013.1_src/data/scripts/dock.prm

>  <Rbt.Receptor>
sah_rdock.prm

>  <SCORE>
-198.119

>  <SCORE.INTER>
-10.3967

>  <SCORE.INTER.CONST>
1

>  <SCORE.INTER.POLAR>
-0.704299

>  <SCORE.INTER.REPUL>
0

>  <SCORE.INTER.ROT>
7

>  <SCORE.INTER.VDW>
-20.4021

>  <SCORE.INTER.norm>
-0.346558

>  <SCORE.INTRA>
-182.31

>  <SCORE.INTRA.DIHEDRAL>
0.0961164

>  <SCORE.INTRA.DIHEDRAL.0>
14.9174

>  <SCORE.INTRA.POLAR>
0

>  <SCORE.INTRA.POLAR.0>
0

>  <SCORE.INTRA.REPUL>
0

>  <SCORE.INTRA.REPUL.0>
0

>  <SCORE.INTRA.VDW>
-182.358

>  <SCORE.INTRA.VDW.0>
181.593

>  <SCORE.INTRA.norm>
-6.07699

>  <SCORE.RESTR>
0

>  <SCORE.RESTR.CAVITY>
0

>  <SCORE.RESTR.norm>
0

>  <SCORE.SYSTEM>
-5.4125

>  <SCORE.SYSTEM.CONST>
0

>  <SCORE.SYSTEM.DIHEDRAL>
8.86189

>  <SCORE.SYSTEM.POLAR>
-3.63889

>  <SCORE.SYSTEM.REPUL>
0.0438618

>  <SCORE.SYSTEM.VDW>
2.30948

>  <SCORE.SYSTEM.norm>
-0.180417

>  <SCORE.heavy>
30

>  <SCORE.norm>
-6.60397

$$$$
F0917-3007
  rDOCK(R)          3D
libRbt.so/2013.1/901 2013/11/27
 31 33  0  0  0  0  0  0  0  0999 V2000
  -26.1116   21.7034   -8.1371 C   0  0  0  0  0  0
  -23.9939   22.1728   -8.5053 C   0  0  0  0  0  0
  -23.3388   23.4954   -9.0359 O   0  0  0  0  0  0
  -23.5097   24.2086  -10.2145 C   0  0  0  0  0  0
  -24.5282   24.2164  -11.2102 C   0  0  0  0  0  0
  -24.2390   24.9372  -12.4069 C   0  0  0  0  0  0
  -23.0587   25.6414  -12.6365 C   0  0  0  0  0  0
  -22.0778   25.6295  -11.6717 C   0  0  0  0  0  0
  -22.3052   24.9296  -10.4824 C   0  0  0  0  0  0
  -25.7938   23.5160  -11.2488 N   0  0  0  0  0  0
  -27.0350   24.2719  -11.1459 C   0  0  0  0  0  0
  -26.0526   22.1763  -11.4943 C   0  0  0  0  0  0
  -27.1684   21.6608  -11.4489 O   0  0  0  0  0  0
  -24.9691   21.2885  -11.7952 C   0  0  0  0  0  0
  -25.1588   19.6642  -11.0234 C   0  0  0  0  0  0
  -26.3558   19.2066  -10.6410 F   0  0  0  0  0  0
  -23.7170   18.6880  -10.6280 C   0  0  0  0  0  0
  -22.0836   19.2857  -11.0441 C   0  0  0  0  0  0
  -21.8698   20.8898  -11.8199 C   0  0  0  0  0  0
  -23.3151   21.8763  -12.2872 C   0  0  0  0  0  0
  -20.3182   21.3646  -12.4664 S   0  0  0  0  0  0
  -20.6177   21.9887  -13.7359 O   0  0  0  0  0  0
  -19.6000   22.0552  -11.4269 O   0  0  0  0  0  0
  -19.5799   19.9082  -12.8527 N   0  0  0  0  0  0
  -19.5372   19.3005  -14.1972 C   0  0  0  0  0  0
  -19.4652   17.7640  -14.0486 C   0  0  0  0  0  0
  -20.7930   17.1008  -13.6564 C   0  0  0  0  0  0
  -22.0002   17.6263  -14.4308 C   0  0  0  0  0  0
  -22.0374   19.1466  -14.4792 C   0  0  0  0  0  0
  -20.7354   19.6737  -15.0654 C   0  0  0  0  0  0
  -19.4188   19.3212  -12.0354 H   0  0  0  0  0  0
  1  2  1  0  0  0
  2  3  1  0  0  0
  3  4  1  0  0  0
  4  5  2  0  0  0
  4  9  1  0  0  0
  5  6  1  0  0  0
  5 10  1  0  0  0
  6  7  2  0  0  0
  7  8  1  0  0  0
  8  9  2  0  0  0
 10 11  1  0  0  0
 10 12  1  0  0  0
 12 13  2  0  0  0
 12 14  1  0  0  0
 14 15  2  0  0  0
 14 20  1  0  0  0
 15 16  1  0  0  0
 15 17  1  0  0  0
 17 18  2  0  0  0
 18 19  1  0  0  0
 19 20  2  0  0  0
 19 21  1  0  0  0
 21 22  2  0  0  0
 21 23  2  0  0  0
 21 24  1  0  0  0
 24 25  1  0  0  0
 24 31  1  0  0  0
 25 26  1  0  0  0
 25 30  1  0  0  0
 26 27  1  0  0  0
 27 28  1  0  0  0
 28 29  1  0  0  0
 29 30  1  0  0  0
M  END
>  <CHROM.0>
-178.91913486,66.78045289,75.65525615,64.67352882,-31.63461745,63.25137368
-36.74655261,-160.38194174

>  <CHROM.1>
-59.06989714,17.98009918,111.70408224,140.73543223,137.09568085,98.12492478
-150.94946263,-22.94468413,21.46179675,-11.85061252,2.41055183,0.42408220
0.20844586

>  <Name>
F0917-3007

>  <RI>
2.30137e+07

>  <Rbt.Current_Directory>
/home/adria/Escritorio/rDock_CMTR_LC/2pxcA_model/inputs_sah

>  <Rbt.Executable>
rbdock ($Id: //depot/dev/client3/rdock/2013.1/src/exe/rbdock.cxx#4 $)

>  <Rbt.Library>
libRbt.so (2013.1, Build901 2013/11/27)

>  <Rbt.Parameter_File>
/home/adria/Escritorio/rDock_2013.1_src/data/scripts/dock.prm

>  <Rbt.Receptor>
sah_rdock.prm

>  <SCORE>
-200.676

>  <SCORE.INTER>
-8.98733

>  <SCORE.INTER.CONST>
1

>  <SCORE.INTER.POLAR>
-0.17146

>  <SCORE.INTER.REPUL>
0

>  <SCORE.INTER.ROT>
7

>  <SCORE.INTER.VDW>
-20.8044

>  <SCORE.INTER.norm>
-0.299578

>  <SCORE.INTRA>
-184.76

>  <SCORE.INTRA.DIHEDRAL>
4.43287

>  <SCORE.INTRA.DIHEDRAL.0>
14.9174

>  <SCORE.INTRA.POLAR>
0

>  <SCORE.INTRA.POLAR.0>
0

>  <SCORE.INTRA.REPUL>
0

>  <SCORE.INTRA.REPUL.0>
0

>  <SCORE.INTRA.VDW>
-186.977

>  <SCORE.INTRA.VDW.0>
181.593

>  <SCORE.INTRA.norm>
-6.15868

>  <SCORE.RESTR>
0

>  <SCORE.RESTR.CAVITY>
0

>  <SCORE.RESTR.norm>
0

>  <SCORE.SYSTEM>
-6.9287

>  <SCORE.SYSTEM.CONST>
0

>  <SCORE.SYSTEM.DIHEDRAL>
5.94611

>  <SCORE.SYSTEM.POLAR>
-3.72794

>  <SCORE.SYSTEM.VDW>
2.77326

>  <SCORE.SYSTEM.norm>
-0.230957

>  <SCORE.heavy>
30

>  <SCORE.norm>
-6.68922

$$$$
F0917-3007
  rDOCK(R)          3D
libRbt.so/2013.1/901 2013/11/27
 31 33  0  0  0  0  0  0  0  0999 V2000
  -15.9941   18.5891  -17.1414 C   0  0  0  0  0  0
  -17.6843   17.1840  -17.2376 C   0  0  0  0  0  0
  -18.9654   17.0952  -16.3371 O   0  0  0  0  0  0
  -20.0439   17.9529  -16.1693 C   0  0  0  0  0  0
  -20.3180   19.0063  -15.2504 C   0  0  0  0  0  0
  -21.6493   19.5187  -15.2525 C   0  0  0  0  0  0
  -22.6614   19.0784  -16.1032 C   0  0  0  0  0  0
  -22.3915   18.0599  -16.9879 C   0  0  0  0  0  0
  -21.1043   17.5139  -17.0209 C   0  0  0  0  0  0
  -19.4772   19.5856  -14.2251 N   0  0  0  0  0  0
  -18.0671   19.8233  -14.5037 C   0  0  0  0  0  0
  -19.8246   20.0901  -12.9813 C   0  0  0  0  0  0
  -19.0227   20.5132  -12.1504 O   0  0  0  0  0  0
  -21.2010   20.1096  -12.5835 C   0  0  0  0  0  0
  -21.9463   18.4622  -12.5569 C   0  0  0  0  0  0
  -21.1998   17.3580  -12.4483 F   0  0  0  0  0  0
  -23.7024   18.2709  -12.8167 C   0  0  0  0  0  0
  -24.7402   19.7091  -13.0474 C   0  0  0  0  0  0
  -24.0258   21.3553  -13.0674 C   0  0  0  0  0  0
  -22.2579   21.5858  -12.7475 C   0  0  0  0  0  0
  -25.0503   22.7693  -13.0259 S   0  0  0  0  0  0
  -25.5983   22.8728  -14.3599 O   0  0  0  0  0  0
  -25.8908   22.6706  -11.8609 O   0  0  0  0  0  0
  -23.9699   24.0459  -12.8912 N   0  0  0  0  0  0
  -24.1209   25.2031  -11.9875 C   0  0  0  0  0  0
  -24.0631   24.7059  -10.5255 C   0  0  0  0  0  0
  -22.6545   24.3476  -10.0315 C   0  0  0  0  0  0
  -21.5849   25.3675  -10.4172 C   0  0  0  0  0  0
  -21.6645   25.7599  -11.8851 C   0  0  0  0  0  0
  -23.0598   26.2785  -12.2031 C   0  0  0  0  0  0
  -23.3471   24.1191  -13.6945 H   0  0  0  0  0  0
  1  2  1  0  0  0
  2  3  1  0  0  0
  3  4  1  0  0  0
  4  5  2  0  0  0
  4  9  1  0  0  0
  5  6  1  0  0  0
  5 10  1  0  0  0
  6  7  2  0  0  0
  7  8  1  0  0  0
  8  9  2  0  0  0
 10 11  1  0  0  0
 10 12  1  0  0  0
 12 13  2  0  0  0
 12 14  1  0  0  0
 14 15  2  0  0  0
 14 20  1  0  0  0
 15 16  1  0  0  0
 15 17  1  0  0  0
 17 18  2  0  0  0
 18 19  1  0  0  0
 19 20  2  0  0  0
 19 21  1  0  0  0
 21 22  2  0  0  0
 21 23  2  0  0  0
 21 24  1  0  0  0
 24 25  1  0  0  0
 24 31  1  0  0  0
 25 26  1  0  0  0
 25 30  1  0  0  0
 26 27  1  0  0  0
 27 28  1  0  0  0
 28 29  1  0  0  0
 29 30  1  0  0  0
M  END
>  <CHROM.0>
39.45969247,-167.84263486,-167.66799145,61.45252421,167.97372900,63.49514729
-156.14292563,-161.07599437

>  <CHROM.1>
66.26570285,-92.94243290,40.92382457,59.48389281,-75.63238216,-136.11749067
64.48432530,-21.91458288,20.92443264,-13.61227045,-1.00554593,0.03057571
0.55017180

>  <Name>
F0917-3007

>  <RI>
2.30137e+07

>  <Rbt.Current_Directory>
/home/adria/Escritorio/rDock_CMTR_LC/2pxcA_model/inputs_sah

>  <Rbt.Executable>
rbdock ($Id: //depot/dev/client3/rdock/2013.1/src/exe/rbdock.cxx#4 $)

>  <Rbt.Library>
libRbt.so (2013.1, Build901 2013/11/27)

>  <Rbt.Parameter_File>
/home/adria/Escritorio/rDock_2013.1_src/data/scripts/dock.prm

>  <Rbt.Receptor>
sah_rdock.prm

>  <SCORE>
-186.653

>  <SCORE.INTER>
-8.83031

>  <SCORE.INTER.CONST>
1

>  <SCORE.INTER.POLAR>
-0.171622

>  <SCORE.INTER.REPUL>
0.00159827

>  <SCORE.INTER.ROT>
7

>  <SCORE.INTER.VDW>
-20.6548

>  <SCORE.INTER.norm>
-0.294344

>  <SCORE.INTRA>
-180.645

>  <SCORE.INTRA.DIHEDRAL>
10.4705

>  <SCORE.INTRA.DIHEDRAL.0>
14.9174

>  <SCORE.INTRA.POLAR>
0

>  <SCORE.INTRA.POLAR.0>
0

>  <SCORE.INTRA.REPUL>
0

>  <SCORE.INTRA.REPUL.0>
0

>  <SCORE.INTRA.VDW>
-185.881

>  <SCORE.INTRA.VDW.0>
181.593

>  <SCORE.INTRA.norm>
-6.02151

>  <SCORE.RESTR>
0

>  <SCORE.RESTR.CAVITY>
0

>  <SCORE.RESTR.norm>
0

>  <SCORE.SYSTEM>
2.82262

>  <SCORE.SYSTEM.CONST>
0

>  <SCORE.SYSTEM.DIHEDRAL>
5.4235

>  <SCORE.SYSTEM.POLAR>
-3.57107

>  <SCORE.SYSTEM.REPUL>
0.124948

>  <SCORE.SYSTEM.VDW>
11.6278

>  <SCORE.SYSTEM.norm>
0.0940873

>  <SCORE.heavy>
30

>  <SCORE.norm>
-6.22177

$$$$
F0917-3007
  rDOCK(R)          3D
libRbt.so/2013.1/901 2013/11/27
 31 33  0  0  0  0  0  0  0  0999 V2000
  -26.1516   22.3442  -16.0471 C   0  0  0  0  0  0
  -26.8386   20.8357  -14.6004 C   0  0  0  0  0  0
  -26.0052   19.9016  -13.6556 O   0  0  0  0  0  0
  -25.1825   20.1732  -12.5710 C   0  0  0  0  0  0
  -24.2351   19.3941  -11.8469 C   0  0  0  0  0  0
  -23.7407   19.9626  -10.6355 C   0  0  0  0  0  0
  -24.1005   21.2184  -10.1504 C   0  0  0  0  0  0
  -25.0169   21.9662  -10.8533 C   0  0  0  0  0  0
  -25.5414   21.4520  -12.0435 C   0  0  0  0  0  0
  -23.7574   18.0504  -12.0920 N   0  0  0  0  0  0
  -24.0483   16.9987  -11.1267 C   0  0  0  0  0  0
  -23.1261   17.5298  -13.2112 C   0  0  0  0  0  0
  -22.7035   16.3784  -13.3025 O   0  0  0  0  0  0
  -22.9022   18.3668  -14.3524 C   0  0  0  0  0  0
  -24.2506   18.2879  -15.5548 C   0  0  0  0  0  0
  -25.4793   17.8936  -15.2035 F   0  0  0  0  0  0
  -23.9286   18.6069  -17.2818 C   0  0  0  0  0  0
  -22.2853   19.0610  -17.8221 C   0  0  0  0  0  0
  -20.9327   19.1562  -16.6466 C   0  0  0  0  0  0
  -21.2399   18.8967  -14.8805 C   0  0  0  0  0  0
  -19.3985   19.8497  -17.1114 S   0  0  0  0  0  0
  -19.6524   20.5053  -18.3748 O   0  0  0  0  0  0
  -18.8734   20.5604  -15.9745 O   0  0  0  0  0  0
  -18.4512   18.5167  -17.4872 N   0  0  0  0  0  0
  -17.5155   17.8443  -16.5646 C   0  0  0  0  0  0
  -16.6900   16.8072  -17.3589 C   0  0  0  0  0  0
  -15.5843   17.4121  -18.2356 C   0  0  0  0  0  0
  -14.7699   18.5017  -17.5410 C   0  0  0  0  0  0
  -15.6526   19.5207  -16.8356 C   0  0  0  0  0  0
  -16.5726   18.8103  -15.8529 C   0  0  0  0  0  0
  -18.3423   18.3835  -18.4916 H   0  0  0  0  0  0
  1  2  1  0  0  0
  2  3  1  0  0  0
  3  4  1  0  0  0
  4  5  2  0  0  0
  4  9  1  0  0  0
  5  6  1  0  0  0
  5 10  1  0  0  0
  6  7  2  0  0  0
  7  8  1  0  0  0
  8  9  2  0  0  0
 10 11  1  0  0  0
 10 12  1  0  0  0
 12 13  2  0  0  0
 12 14  1  0  0  0
 14 15  2  0  0  0
 14 20  1  0  0  0
 15 16  1  0  0  0
 15 17  1  0  0  0
 17 18  2  0  0  0
 18 19  1  0  0  0
 19 20  2  0  0  0
 19 21  1  0  0  0
 21 22  2  0  0  0
 21 23  2  0  0  0
 21 24  1  0  0  0
 24 25  1  0  0  0
 24 31  1  0  0  0
 25 26  1  0  0  0
 25 30  1  0  0  0
 26 27  1  0  0  0
 27 28  1  0  0  0
 28 29  1  0  0  0
 29 30  1  0  0  0
M  END
>  <CHROM.0>
41.06172851,66.57913073,-139.78720972,60.40631680,-30.95169708,-57.15021085
-35.52884019,-49.17009851

>  <CHROM.1>
65.99068330,-166.79744887,-115.09322801,-91.55975907,12.44690008,-95.10711112
-171.47393820,-21.70376606,19.17432347,-14.99260790,2.68605525,-0.28796028
1.84023777

>  <Name>
F0917-3007

>  <RI>
2.30137e+07

>  <Rbt.Current_Directory>
/home/adria/Escritorio/rDock_CMTR_LC/2pxcA_model/inputs_sah

>  <Rbt.Executable>
rbdock ($Id: //depot/dev/client3/rdock/2013.1/src/exe/rbdock.cxx#4 $)

>  <Rbt.Library>
libRbt.so (2013.1, Build901 2013/11/27)

>  <Rbt.Parameter_File>
/home/adria/Escritorio/rDock_2013.1_src/data/scripts/dock.prm

>  <Rbt.Receptor>
sah_rdock.prm

>  <SCORE>
-185.743

>  <SCORE.INTER>
-7.61578

>  <SCORE.INTER.CONST>
1

>  <SCORE.INTER.POLAR>
-0.0951447

>  <SCORE.INTER.REPUL>
0.00692229

>  <SCORE.INTER.ROT>
7

>  <SCORE.INTER.VDW>
-19.7269

>  <SCORE.INTER.norm>
-0.253859

>  <SCORE.INTRA>
-178.214

>  <SCORE.INTRA.DIHEDRAL>
12.7674

>  <SCORE.INTRA.DIHEDRAL.0>
14.9174

>  <SCORE.INTRA.POLAR>
0

>  <SCORE.INTRA.POLAR.0>
0

>  <SCORE.INTRA.REPUL>
0

>  <SCORE.INTRA.REPUL.0>
0

>  <SCORE.INTRA.VDW>
-184.598

>  <SCORE.INTRA.VDW.0>
181.593

>  <SCORE.INTRA.norm>
-5.94047

>  <SCORE.RESTR>
0

>  <SCORE.RESTR.CAVITY>
0

>  <SCORE.RESTR.norm>
0

>  <SCORE.SYSTEM>
0.0868008

>  <SCORE.SYSTEM.CONST>
0

>  <SCORE.SYSTEM.DIHEDRAL>
12.0321

>  <SCORE.SYSTEM.POLAR>
-3.5471

>  <SCORE.SYSTEM.REPUL>
0.133456

>  <SCORE.SYSTEM.VDW>
5.4636

>  <SCORE.SYSTEM.norm>
0.00289336

>  <SCORE.heavy>
30

>  <SCORE.norm>
-6.19144

$$$$
F0917-3007
  rDOCK(R)          3D
libRbt.so/2013.1/901 2013/11/27
 31 33  0  0  0  0  0  0  0  0999 V2000
  -24.9368   16.4051  -17.0362 C   0  0  0  0  0  0
  -24.1268   17.3930  -15.2449 C   0  0  0  0  0  0
  -22.7107   18.0217  -15.0019 O   0  0  0  0  0  0
  -22.1149   18.5588  -13.8689 C   0  0  0  0  0  0
  -22.4888   18.5946  -12.4949 C   0  0  0  0  0  0
  -21.7150   19.4441  -11.6496 C   0  0  0  0  0  0
  -20.6229   20.1970  -12.0766 C   0  0  0  0  0  0
  -20.2670   20.1596  -13.4051 C   0  0  0  0  0  0
  -20.9984   19.3503  -14.2804 C   0  0  0  0  0  0
  -23.6096   17.9747  -11.8216 N   0  0  0  0  0  0
  -23.8451   16.5466  -11.9873 C   0  0  0  0  0  0
  -24.4909   18.5146  -10.8975 C   0  0  0  0  0  0
  -25.4549   17.9181  -10.4205 O   0  0  0  0  0  0
  -24.3213   19.8696  -10.4638 C   0  0  0  0  0  0
  -24.8855   20.1383   -8.7668 C   0  0  0  0  0  0
  -24.9859   19.1294   -7.8947 F   0  0  0  0  0  0
  -25.4567   21.7520   -8.2592 C   0  0  0  0  0  0
  -25.4204   23.1222   -9.4081 C   0  0  0  0  0  0
  -24.8551   22.8834  -11.0945 C   0  0  0  0  0  0
  -24.2140   21.2735  -11.6217 C   0  0  0  0  0  0
  -24.5664   24.2543  -12.1375 S   0  0  0  0  0  0
  -23.8282   23.7204  -13.2604 O   0  0  0  0  0  0
  -25.8155   24.9504  -12.3067 O   0  0  0  0  0  0
  -23.4614   25.1846  -11.2837 N   0  0  0  0  0  0
  -22.1976   25.7228  -11.8239 C   0  0  0  0  0  0
  -21.3477   26.2697  -10.6550 C   0  0  0  0  0  0
  -20.6667   25.1883   -9.8043 C   0  0  0  0  0  0
  -20.0130   24.0769  -10.6229 C   0  0  0  0  0  0
  -20.9329   23.5451  -11.7121 C   0  0  0  0  0  0
  -21.3881   24.6911  -12.6044 C   0  0  0  0  0  0
  -23.5772   25.1033  -10.2745 H   0  0  0  0  0  0
  1  2  1  0  0  0
  2  3  1  0  0  0
  3  4  1  0  0  0
  4  5  2  0  0  0
  4  9  1  0  0  0
  5  6  1  0  0  0
  5 10  1  0  0  0
  6  7  2  0  0  0
  7  8  1  0  0  0
  8  9  2  0  0  0
 10 11  1  0  0  0
 10 12  1  0  0  0
 12 13  2  0  0  0
 12 14  1  0  0  0
 14 15  2  0  0  0
 14 20  1  0  0  0
 15 16  1  0  0  0
 15 17  1  0  0  0
 17 18  2  0  0  0
 18 19  1  0  0  0
 19 20  2  0  0  0
 19 21  1  0  0  0
 21 22  2  0  0  0
 21 23  2  0  0  0
 21 24  1  0  0  0
 24 25  1  0  0  0
 24 31  1  0  0  0
 25 26  1  0  0  0
 25 30  1  0  0  0
 26 27  1  0  0  0
 27 28  1  0  0  0
 28 29  1  0  0  0
 29 30  1  0  0  0
M  END
>  <CHROM.0>
-64.69678170,67.05851335,72.13254999,-63.13693973,168.93115880,-61.81215395
82.30146535,-163.25855230

>  <CHROM.1>
-174.15047757,8.92708391,52.39161379,-149.45665719,166.37457946,129.87450435
-168.66442563,-23.29036349,21.28898290,-11.81180181,-1.75999062,0.89326109
0.44433711

>  <Name>
F0917-3007

>  <RI>
2.30137e+07

>  <Rbt.Current_Directory>
/home/adria/Escritorio/rDock_CMTR_LC/2pxcA_model/inputs_sah

>  <Rbt.Executable>
rbdock ($Id: //depot/dev/client3/rdock/2013.1/src/exe/rbdock.cxx#4 $)

>  <Rbt.Library>
libRbt.so (2013.1, Build901 2013/11/27)

>  <Rbt.Parameter_File>
/home/adria/Escritorio/rDock_2013.1_src/data/scripts/dock.prm

>  <Rbt.Receptor>
sah_rdock.prm

>  <SCORE>
-193.251

>  <SCORE.INTER>
-7.94235

>  <SCORE.INTER.CONST>
1

>  <SCORE.INTER.POLAR>
-0.111484

>  <SCORE.INTER.REPUL>
0

>  <SCORE.INTER.ROT>
7

>  <SCORE.INTER.VDW>
-19.9633

>  <SCORE.INTER.norm>
-0.264745

>  <SCORE.INTRA>
-183.127

>  <SCORE.INTRA.DIHEDRAL>
3.44079

>  <SCORE.INTRA.DIHEDRAL.0>
14.9174

>  <SCORE.INTRA.POLAR>
0

>  <SCORE.INTRA.POLAR.0>
0

>  <SCORE.INTRA.REPUL>
0

>  <SCORE.INTRA.REPUL.0>
0

>  <SCORE.INTRA.VDW>
-184.847

>  <SCORE.INTRA.VDW.0>
181.593

>  <SCORE.INTRA.norm>
-6.10422

>  <SCORE.RESTR>
0.00449828

>  <SCORE.RESTR.CAVITY>
0.00449828

>  <SCORE.RESTR.norm>
0.000149943

>  <SCORE.SYSTEM>
-2.18627

>  <SCORE.SYSTEM.CONST>
0

>  <SCORE.SYSTEM.DIHEDRAL>
2.83924

>  <SCORE.SYSTEM.POLAR>
-3.60306

>  <SCORE.SYSTEM.VDW>
8.64451

>  <SCORE.SYSTEM.norm>
-0.0728757

>  <SCORE.heavy>
30

>  <SCORE.norm>
-6.44169

$$$$
F0917-3007
  rDOCK(R)          3D
libRbt.so/2013.1/901 2013/11/27
 31 33  0  0  0  0  0  0  0  0999 V2000
  -27.1718   21.0970  -12.6565 C   0  0  0  0  0  0
  -25.4450   21.9838  -11.6211 C   0  0  0  0  0  0
  -24.4765   23.1262  -12.0867 O   0  0  0  0  0  0
  -23.3577   23.6946  -11.4934 C   0  0  0  0  0  0
  -22.7819   23.5867  -10.1950 C   0  0  0  0  0  0
  -21.7391   24.5096   -9.8854 C   0  0  0  0  0  0
  -21.2444   25.4651  -10.7710 C   0  0  0  0  0  0
  -21.8050   25.5657  -12.0234 C   0  0  0  0  0  0
  -22.8382   24.6915  -12.3759 C   0  0  0  0  0  0
  -23.1568   22.7430   -9.0807 N   0  0  0  0  0  0
  -23.5566   23.3551   -7.8206 C   0  0  0  0  0  0
  -23.3201   21.3671   -9.0329 C   0  0  0  0  0  0
  -23.5878   20.7305   -8.0151 O   0  0  0  0  0  0
  -23.1429   20.5903  -10.2238 C   0  0  0  0  0  0
  -24.3604   19.2626  -10.3821 C   0  0  0  0  0  0
  -25.5339   19.3092   -9.7424 F   0  0  0  0  0  0
  -23.9566   17.7834  -11.2969 C   0  0  0  0  0  0
  -22.3697   17.6315  -12.1076 C   0  0  0  0  0  0
  -21.1486   18.9397  -11.9739 C   0  0  0  0  0  0
  -21.5505   20.4765  -11.1036 C   0  0  0  0  0  0
  -19.7134   18.9209  -12.9694 S   0  0  0  0  0  0
  -18.9644   20.0904  -12.5670 O   0  0  0  0  0  0
  -19.1518   17.5965  -12.9084 O   0  0  0  0  0  0
  -20.2856   19.2697  -14.5077 N   0  0  0  0  0  0
  -20.0518   18.4513  -15.7136 C   0  0  0  0  0  0
  -20.1013   19.3682  -16.9566 C   0  0  0  0  0  0
  -18.8519   20.2380  -17.1546 C   0  0  0  0  0  0
  -17.5369   19.4893  -16.9472 C   0  0  0  0  0  0
  -17.5401   18.6599  -15.6716 C   0  0  0  0  0  0
  -18.7228   17.7019  -15.6849 C   0  0  0  0  0  0
  -20.5565   20.2464  -14.6133 H   0  0  0  0  0  0
  1  2  1  0  0  0
  2  3  1  0  0  0
  3  4  1  0  0  0
  4  5  2  0  0  0
  4  9  1  0  0  0
  5  6  1  0  0  0
  5 10  1  0  0  0
  6  7  2  0  0  0
  7  8  1  0  0  0
  8  9  2  0  0  0
 10 11  1  0  0  0
 10 12  1  0  0  0
 12 13  2  0  0  0
 12 14  1  0  0  0
 14 15  2  0  0  0
 14 20  1  0  0  0
 15 16  1  0  0  0
 15 17  1  0  0  0
 17 18  2  0  0  0
 18 19  1  0  0  0
 19 20  2  0  0  0
 19 21  1  0  0  0
 21 22  2  0  0  0
 21 23  2  0  0  0
 21 24  1  0  0  0
 24 25  1  0  0  0
 24 31  1  0  0  0
 25 26  1  0  0  0
 25 30  1  0  0  0
 26 27  1  0  0  0
 27 28  1  0  0  0
 28 29  1  0  0  0
 29 30  1  0  0  0
M  END
>  <CHROM.0>
43.33477435,-73.89601607,71.87837365,150.05940788,169.21531526,-179.19732372
82.74506311,-159.26126734

>  <CHROM.1>
-177.95777797,-9.73697947,-119.61313930,-139.94307217,-178.59649216,-125.78702607
-152.56105168,-21.84036313,20.72626828,-12.20375526,2.55720200,0.75405360
0.16167805

>  <Name>
F0917-3007

>  <RI>
2.30137e+07

>  <Rbt.Current_Directory>
/home/adria/Escritorio/rDock_CMTR_LC/2pxcA_model/inputs_sah

>  <Rbt.Executable>
rbdock ($Id: //depot/dev/client3/rdock/2013.1/src/exe/rbdock.cxx#4 $)

>  <Rbt.Library>
libRbt.so (2013.1, Build901 2013/11/27)

>  <Rbt.Parameter_File>
/home/adria/Escritorio/rDock_2013.1_src/data/scripts/dock.prm

>  <Rbt.Receptor>
sah_rdock.prm

>  <SCORE>
-189.355

>  <SCORE.INTER>
-12.1121

>  <SCORE.INTER.CONST>
1

>  <SCORE.INTER.POLAR>
-1.16607

>  <SCORE.INTER.REPUL>
0.130058

>  <SCORE.INTER.ROT>
7

>  <SCORE.INTER.VDW>
-21.1978

>  <SCORE.INTER.norm>
-0.403737

>  <SCORE.INTRA>
-182.242

>  <SCORE.INTRA.DIHEDRAL>
5.27108

>  <SCORE.INTRA.DIHEDRAL.0>
14.9174

>  <SCORE.INTRA.POLAR>
0

>  <SCORE.INTRA.POLAR.0>
0

>  <SCORE.INTRA.REPUL>
0

>  <SCORE.INTRA.REPUL.0>
0

>  <SCORE.INTRA.VDW>
-184.878

>  <SCORE.INTRA.VDW.0>
181.593

>  <SCORE.INTRA.norm>
-6.07474

>  <SCORE.RESTR>
0

>  <SCORE.RESTR.CAVITY>
0

>  <SCORE.RESTR.norm>
0

>  <SCORE.SYSTEM>
4.99923

>  <SCORE.SYSTEM.CONST>
0

>  <SCORE.SYSTEM.DIHEDRAL>
8.41848

>  <SCORE.SYSTEM.POLAR>
-3.87982

>  <SCORE.SYSTEM.REPUL>
0.152782

>  <SCORE.SYSTEM.VDW>
13.2175

>  <SCORE.SYSTEM.norm>
0.166641

>  <SCORE.heavy>
30

>  <SCORE.norm>
-6.31184

$$$$
F0917-3007
  rDOCK(R)          3D
libRbt.so/2013.1/901 2013/11/27
 31 33  0  0  0  0  0  0  0  0999 V2000
  -21.7192   19.0804  -14.7531 C   0  0  0  0  0  0
  -20.8200   18.2774  -12.9127 C   0  0  0  0  0  0
  -20.9290   18.7953  -11.4363 O   0  0  0  0  0  0
  -22.0177   18.9824  -10.5957 C   0  0  0  0  0  0
  -23.4257   18.9886  -10.8109 C   0  0  0  0  0  0
  -24.2310   19.4423   -9.7242 C   0  0  0  0  0  0
  -23.7310   19.8398   -8.4857 C   0  0  0  0  0  0
  -22.3701   19.8330   -8.2837 C   0  0  0  0  0  0
  -21.5331   19.4065   -9.3198 C   0  0  0  0  0  0
  -24.1827   18.6987  -12.0096 N   0  0  0  0  0  0
  -24.1519   17.3541  -12.5694 C   0  0  0  0  0  0
  -25.0790   19.4991  -12.7011 C   0  0  0  0  0  0
  -25.6340   19.1800  -13.7513 O   0  0  0  0  0  0
  -25.3849   20.8096  -12.2092 C   0  0  0  0  0  0
  -27.1480   21.0408  -11.8802 C   0  0  0  0  0  0
  -27.9615   20.0019  -11.6630 F   0  0  0  0  0  0
  -27.8694   22.6712  -11.9765 C   0  0  0  0  0  0
  -26.8430   24.0894  -12.3425 C   0  0  0  0  0  0
  -25.0888   23.8872  -12.6625 C   0  0  0  0  0  0
  -24.3172   22.2554  -12.5136 C   0  0  0  0  0  0
  -24.0366   25.2782  -12.7574 S   0  0  0  0  0  0
  -22.9213   24.8481  -13.5709 O   0  0  0  0  0  0
  -24.8432   26.4180  -13.1090 O   0  0  0  0  0  0
  -23.4205   25.4240  -11.2035 N   0  0  0  0  0  0
  -22.4031   26.4037  -10.7748 C   0  0  0  0  0  0
  -22.3489   26.4238   -9.2305 C   0  0  0  0  0  0
  -21.6313   25.2198   -8.6043 C   0  0  0  0  0  0
  -20.3226   24.8489   -9.2990 C   0  0  0  0  0  0
  -20.4702   24.7861  -10.8121 C   0  0  0  0  0  0
  -21.0124   26.1105  -11.3305 C   0  0  0  0  0  0
  -23.5781   24.5902  -10.6392 H   0  0  0  0  0  0
  1  2  1  0  0  0
  2  3  1  0  0  0
  3  4  1  0  0  0
  4  5  2  0  0  0
  4  9  1  0  0  0
  5  6  1  0  0  0
  5 10  1  0  0  0
  6  7  2  0  0  0
  7  8  1  0  0  0
  8  9  2  0  0  0
 10 11  1  0  0  0
 10 12  1  0  0  0
 12 13  2  0  0  0
 12 14  1  0  0  0
 14 15  2  0  0  0
 14 20  1  0  0  0
 15 16  1  0  0  0
 15 17  1  0  0  0
 17 18  2  0  0  0
 18 19  1  0  0  0
 19 20  2  0  0  0
 19 21  1  0  0  0
 21 22  2  0  0  0
 21 23  2  0  0  0
 21 24  1  0  0  0
 24 25  1  0  0  0
 24 31  1  0  0  0
 25 26  1  0  0  0
 25 30  1  0  0  0
 26 27  1  0  0  0
 27 28  1  0  0  0
 28 29  1  0  0  0
 29 30  1  0  0  0
M  END
>  <CHROM.0>
-59.70108389,68.11880431,-164.64502362,62.75448115,-30.90134574,59.60602877
-70.44257015,-157.44539903

>  <CHROM.1>
59.49015986,-12.03453869,64.98106313,-121.75814125,-155.43675781,175.77181111
167.26812671,-23.61881091,22.08487149,-11.54487320,-1.75627840,-0.44932707
0.00467030

>  <Name>
F0917-3007

>  <RI>
2.30137e+07

>  <Rbt.Current_Directory>
/home/adria/Escritorio/rDock_CMTR_LC/2pxcA_model/inputs_sah

>  <Rbt.Executable>
rbdock ($Id: //depot/dev/client3/rdock/2013.1/src/exe/rbdock.cxx#4 $)

>  <Rbt.Library>
libRbt.so (2013.1, Build901 2013/11/27)

>  <Rbt.Parameter_File>
/home/adria/Escritorio/rDock_2013.1_src/data/scripts/dock.prm

>  <Rbt.Receptor>
sah_rdock.prm

>  <SCORE>
-186.457

>  <SCORE.INTER>
-0.719106

>  <SCORE.INTER.CONST>
1

>  <SCORE.INTER.POLAR>
-1.38298

>  <SCORE.INTER.REPUL>
0.959166

>  <SCORE.INTER.ROT>
7

>  <SCORE.INTER.VDW>
-13.2128

>  <SCORE.INTER.norm>
-0.0239702

>  <SCORE.INTRA>
-181.158

>  <SCORE.INTRA.DIHEDRAL>
10.9233

>  <SCORE.INTRA.DIHEDRAL.0>
14.9174

>  <SCORE.INTRA.POLAR>
0

>  <SCORE.INTRA.POLAR.0>
0

>  <SCORE.INTRA.REPUL>
0

>  <SCORE.INTRA.REPUL.0>
0

>  <SCORE.INTRA.VDW>
-186.62

>  <SCORE.INTRA.VDW.0>
181.593

>  <SCORE.INTRA.norm>
-6.0386

>  <SCORE.RESTR>
0.85752

>  <SCORE.RESTR.CAVITY>
0.85752

>  <SCORE.RESTR.norm>
0.028584

>  <SCORE.SYSTEM>
-5.43735

>  <SCORE.SYSTEM.CONST>
0

>  <SCORE.SYSTEM.DIHEDRAL>
5.30992

>  <SCORE.SYSTEM.POLAR>
-2.99124

>  <SCORE.SYSTEM.VDW>
2.0779

>  <SCORE.SYSTEM.norm>
-0.181245

>  <SCORE.heavy>
30

>  <SCORE.norm>
-6.21523

$$$$
F0917-3007
  rDOCK(R)          3D
libRbt.so/2013.1/901 2013/11/27
 31 33  0  0  0  0  0  0  0  0999 V2000
  -18.1458   15.0718  -15.6718 C   0  0  0  0  0  0
  -19.5051   16.6161  -16.4513 C   0  0  0  0  0  0
  -20.6835   17.3658  -15.7377 O   0  0  0  0  0  0
  -20.7116   18.2337  -14.6546 C   0  0  0  0  0  0
  -21.6991   19.1248  -14.1449 C   0  0  0  0  0  0
  -21.2726   20.0275  -13.1260 C   0  0  0  0  0  0
  -19.9851   20.0635  -12.5939 C   0  0  0  0  0  0
  -19.0350   19.2013  -13.0909 C   0  0  0  0  0  0
  -19.3969   18.3013  -14.0984 C   0  0  0  0  0  0
  -23.0660   19.3365  -14.5697 N   0  0  0  0  0  0
  -23.5248   18.7565  -15.8249 C   0  0  0  0  0  0
  -24.1155   19.9401  -13.8941 C   0  0  0  0  0  0
  -25.2361   20.1244  -14.3663 O   0  0  0  0  0  0
  -23.9147   20.4256  -12.5611 C   0  0  0  0  0  0
  -23.5756   19.1019  -11.3766 C   0  0  0  0  0  0
  -23.1015   17.9150  -11.7703 F   0  0  0  0  0  0
  -24.0024   19.3109   -9.6556 C   0  0  0  0  0  0
  -24.7140   20.8494   -9.0850 C   0  0  0  0  0  0
  -25.0504   22.1818  -10.2392 C   0  0  0  0  0  0
  -24.5740   22.0225  -11.9794 C   0  0  0  0  0  0
  -25.4928   23.7690   -9.6597 S   0  0  0  0  0  0
  -26.3417   24.3204  -10.6922 O   0  0  0  0  0  0
  -25.9384   23.6326   -8.2973 O   0  0  0  0  0  0
  -24.0634   24.6432   -9.7485 N   0  0  0  0  0  0
  -22.7119   24.1003   -9.5090 C   0  0  0  0  0  0
  -22.0436   23.8057  -10.8708 C   0  0  0  0  0  0
  -21.5448   25.0515  -11.6165 C   0  0  0  0  0  0
  -20.8052   26.0500  -10.7283 C   0  0  0  0  0  0
  -21.5549   26.3386   -9.4361 C   0  0  0  0  0  0
  -21.8221   25.0359   -8.6956 C   0  0  0  0  0  0
  -24.2143   25.6492   -9.6864 H   0  0  0  0  0  0
  1  2  1  0  0  0
  2  3  1  0  0  0
  3  4  1  0  0  0
  4  5  2  0  0  0
  4  9  1  0  0  0
  5  6  1  0  0  0
  5 10  1  0  0  0
  6  7  2  0  0  0
  7  8  1  0  0  0
  8  9  2  0  0  0
 10 11  1  0  0  0
 10 12  1  0  0  0
 12 13  2  0  0  0
 12 14  1  0  0  0
 14 15  2  0  0  0
 14 20  1  0  0  0
 15 16  1  0  0  0
 15 17  1  0  0  0
 17 18  2  0  0  0
 18 19  1  0  0  0
 19 20  2  0  0  0
 19 21  1  0  0  0
 21 22  2  0  0  0
 21 23  2  0  0  0
 21 24  1  0  0  0
 24 25  1  0  0  0
 24 31  1  0  0  0
 25 26  1  0  0  0
 25 30  1  0  0  0
 26 27  1  0  0  0
 27 28  1  0  0  0
 28 29  1  0  0  0
 29 30  1  0  0  0
M  END
>  <CHROM.0>
33.69408126,67.50275396,74.24591811,-61.14284359,-29.99542960,-59.61744918
-156.04749368,-162.15318263

>  <CHROM.1>
63.82544787,165.57812293,-11.38325915,-65.42376741,-150.10476208,-34.53319307
99.58691047,-22.74043818,21.14308721,-12.03509095,-1.18047429,0.22978769
0.56518557

>  <Name>
F0917-3007

>  <RI>
2.30137e+07

>  <Rbt.Current_Directory>
/home/adria/Escritorio/rDock_CMTR_LC/2pxcA_model/inputs_sah

>  <Rbt.Executable>
rbdock ($Id: //depot/dev/client3/rdock/2013.1/src/exe/rbdock.cxx#4 $)

>  <Rbt.Library>
libRbt.so (2013.1, Build901 2013/11/27)

>  <Rbt.Parameter_File>
/home/adria/Escritorio/rDock_2013.1_src/data/scripts/dock.prm

>  <Rbt.Receptor>
sah_rdock.prm

>  <SCORE>
-200.355

>  <SCORE.INTER>
-12.2788

>  <SCORE.INTER.CONST>
1

>  <SCORE.INTER.POLAR>
-0.733884

>  <SCORE.INTER.REPUL>
0

>  <SCORE.INTER.ROT>
7

>  <SCORE.INTER.VDW>
-22.1836

>  <SCORE.INTER.norm>
-0.409292

>  <SCORE.INTRA>
-185.236

>  <SCORE.INTRA.DIHEDRAL>
-2.67591

>  <SCORE.INTRA.DIHEDRAL.0>
14.9174

>  <SCORE.INTRA.POLAR>
0

>  <SCORE.INTRA.POLAR.0>
0

>  <SCORE.INTRA.REPUL>
0

>  <SCORE.INTRA.REPUL.0>
0

>  <SCORE.INTRA.VDW>
-183.898

>  <SCORE.INTRA.VDW.0>
181.593

>  <SCORE.INTRA.norm>
-6.17454

>  <SCORE.RESTR>
0

>  <SCORE.RESTR.CAVITY>
0

>  <SCORE.RESTR.norm>
0

>  <SCORE.SYSTEM>
-2.83999

>  <SCORE.SYSTEM.CONST>
0

>  <SCORE.SYSTEM.DIHEDRAL>
8.95832

>  <SCORE.SYSTEM.POLAR>
-3.76955

>  <SCORE.SYSTEM.REPUL>
0.139547

>  <SCORE.SYSTEM.VDW>
4.79959

>  <SCORE.SYSTEM.norm>
-0.0946665

>  <SCORE.heavy>
30

>  <SCORE.norm>
-6.6785

$$$$
F0917-3007
  rDOCK(R)          3D
libRbt.so/2013.1/901 2013/11/27
 31 33  0  0  0  0  0  0  0  0999 V2000
  -16.1405   15.6956  -17.7743 C   0  0  0  0  0  0
  -17.6363   17.0142  -16.8446 C   0  0  0  0  0  0
  -19.1761   17.1316  -17.1185 O   0  0  0  0  0  0
  -20.1429   17.9996  -16.6296 C   0  0  0  0  0  0
  -20.1234   19.0216  -15.6376 C   0  0  0  0  0  0
  -21.3892   19.5551  -15.2524 C   0  0  0  0  0  0
  -22.6089   19.1638  -15.8013 C   0  0  0  0  0  0
  -22.6218   18.1753  -16.7583 C   0  0  0  0  0  0
  -21.4091   17.6104  -17.1659 C   0  0  0  0  0  0
  -19.0162   19.5479  -14.8690 N   0  0  0  0  0  0
  -17.8853   20.1513  -15.5614 C   0  0  0  0  0  0
  -18.8843   19.6886  -13.4960 C   0  0  0  0  0  0
  -17.8721   20.0984  -12.9300 O   0  0  0  0  0  0
  -19.9680   19.3126  -12.6375 C   0  0  0  0  0  0
  -20.7407   17.7525  -13.1265 C   0  0  0  0  0  0
  -20.0897   16.8521  -13.8706 F   0  0  0  0  0  0
  -22.4552   17.4426  -12.7358 C   0  0  0  0  0  0
  -23.3995   18.6473  -11.8108 C   0  0  0  0  0  0
  -22.6522   20.1986  -11.3052 C   0  0  0  0  0  0
  -20.8997   20.5163  -11.6344 C   0  0  0  0  0  0
  -23.4735   21.2570  -10.1843 S   0  0  0  0  0  0
  -24.8552   21.2525  -10.6105 O   0  0  0  0  0  0
  -23.0845   20.8751   -8.8516 O   0  0  0  0  0  0
  -22.8953   22.7831  -10.5739 N   0  0  0  0  0  0
  -22.2552   23.1555  -11.8508 C   0  0  0  0  0  0
  -23.3009   23.8552  -12.7481 C   0  0  0  0  0  0
  -23.6188   25.3017  -12.3438 C   0  0  0  0  0  0
  -22.3846   26.1359  -12.0067 C   0  0  0  0  0  0
  -21.4338   25.4068  -11.0689 C   0  0  0  0  0  0
  -21.0433   24.0659  -11.6743 C   0  0  0  0  0  0
  -22.7450   23.3672   -9.7525 H   0  0  0  0  0  0
  1  2  1  0  0  0
  2  3  1  0  0  0
  3  4  1  0  0  0
  4  5  2  0  0  0
  4  9  1  0  0  0
  5  6  1  0  0  0
  5 10  1  0  0  0
  6  7  2  0  0  0
  7  8  1  0  0  0
  8  9  2  0  0  0
 10 11  1  0  0  0
 10 12  1  0  0  0
 12 13  2  0  0  0
 12 14  1  0  0  0
 14 15  2  0  0  0
 14 20  1  0  0  0
 15 16  1  0  0  0
 15 17  1  0  0  0
 17 18  2  0  0  0
 18 19  1  0  0  0
 19 20  2  0  0  0
 19 21  1  0  0  0
 21 22  2  0  0  0
 21 23  2  0  0  0
 21 24  1  0  0  0
 24 25  1  0  0  0
 24 31  1  0  0  0
 25 26  1  0  0  0
 25 30  1  0  0  0
 26 27  1  0  0  0
 27 28  1  0  0  0
 28 29  1  0  0  0
 29 30  1  0  0  0
M  END
>  <CHROM.0>
37.57347090,-71.82658113,70.80233001,67.22105308,-31.28129884,61.85092745
83.21446420,-158.08238494

>  <CHROM.1>
-175.04352511,-5.72536737,59.50123596,42.80307507,-42.30971493,19.55506982
99.41590019,-21.18905703,20.23540577,-13.32809604,-0.91031357,0.72991854
0.26985313

>  <Name>
F0917-3007

>  <RI>
2.30137e+07

>  <Rbt.Current_Directory>
/home/adria/Escritorio/rDock_CMTR_LC/2pxcA_model/inputs_sah

>  <Rbt.Executable>
rbdock ($Id: //depot/dev/client3/rdock/2013.1/src/exe/rbdock.cxx#4 $)

>  <Rbt.Library>
libRbt.so (2013.1, Build901 2013/11/27)

>  <Rbt.Parameter_File>
/home/adria/Escritorio/rDock_2013.1_src/data/scripts/dock.prm

>  <Rbt.Receptor>
sah_rdock.prm

>  <SCORE>
-197.014

>  <SCORE.INTER>
-10.5415

>  <SCORE.INTER.CONST>
1

>  <SCORE.INTER.POLAR>
0

>  <SCORE.INTER.REPUL>
0.0664568

>  <SCORE.INTER.ROT>
7

>  <SCORE.INTER.VDW>
-23.2738

>  <SCORE.INTER.norm>
-0.351384

>  <SCORE.INTRA>
-183.264

>  <SCORE.INTRA.DIHEDRAL>
5.71073

>  <SCORE.INTRA.DIHEDRAL.0>
14.9174

>  <SCORE.INTRA.POLAR>
0

>  <SCORE.INTRA.POLAR.0>
0

>  <SCORE.INTRA.REPUL>
0

>  <SCORE.INTRA.REPUL.0>
0

>  <SCORE.INTRA.VDW>
-186.119

>  <SCORE.INTRA.VDW.0>
181.593

>  <SCORE.INTRA.norm>
-6.10879

>  <SCORE.RESTR>
0

>  <SCORE.RESTR.CAVITY>
0

>  <SCORE.RESTR.norm>
0

>  <SCORE.SYSTEM>
-3.20864

>  <SCORE.SYSTEM.CONST>
0

>  <SCORE.SYSTEM.DIHEDRAL>
8.62268

>  <SCORE.SYSTEM.POLAR>
-3.91662

>  <SCORE.SYSTEM.REPUL>
0.166959

>  <SCORE.SYSTEM.VDW>
4.96174

>  <SCORE.SYSTEM.norm>
-0.106955

>  <SCORE.heavy>
30

>  <SCORE.norm>
-6.56713

$$$$
F0917-3007
  rDOCK(R)          3D
libRbt.so/2013.1/901 2013/11/27
 31 33  0  0  0  0  0  0  0  0999 V2000
  -19.0068   25.3137  -10.2603 C   0  0  0  0  0  0
  -20.9138   24.2891  -10.6526 C   0  0  0  0  0  0
  -21.8794   24.4069  -11.8829 O   0  0  0  0  0  0
  -23.1213   23.8452  -12.1460 C   0  0  0  0  0  0
  -23.9188   22.8807  -11.4658 C   0  0  0  0  0  0
  -25.0556   22.3867  -12.1720 C   0  0  0  0  0  0
  -25.4363   22.8076  -13.4447 C   0  0  0  0  0  0
  -24.6615   23.7385  -14.0976 C   0  0  0  0  0  0
  -23.5293   24.2492  -13.4547 C   0  0  0  0  0  0
  -23.7047   22.2331  -10.1896 N   0  0  0  0  0  0
  -23.5239   23.0461   -8.9943 C   0  0  0  0  0  0
  -23.7557   20.8861   -9.8653 C   0  0  0  0  0  0
  -23.5007   20.4252   -8.7538 O   0  0  0  0  0  0
  -24.0948   19.9264  -10.8737 C   0  0  0  0  0  0
  -24.4883   18.2996  -10.1891 C   0  0  0  0  0  0
  -24.8788   18.1507   -8.9187 F   0  0  0  0  0  0
  -24.2273   16.8300  -11.1689 C   0  0  0  0  0  0
  -23.6300   16.9630  -12.8494 C   0  0  0  0  0  0
  -23.2422   18.5668  -13.5551 C   0  0  0  0  0  0
  -23.5527   20.0789  -12.6075 C   0  0  0  0  0  0
  -22.9155   18.7307  -15.2631 S   0  0  0  0  0  0
  -22.7343   17.3779  -15.7402 O   0  0  0  0  0  0
  -23.9107   19.6097  -15.8200 O   0  0  0  0  0  0
  -21.3896   19.4267  -15.3164 N   0  0  0  0  0  0
  -20.8717   20.4274  -14.3630 C   0  0  0  0  0  0
  -20.3192   19.6938  -13.1202 C   0  0  0  0  0  0
  -18.9594   19.0145  -13.3357 C   0  0  0  0  0  0
  -17.9484   19.8775  -14.0879 C   0  0  0  0  0  0
  -18.5469   20.5143  -15.3335 C   0  0  0  0  0  0
  -19.7833   21.3177  -14.9559 C   0  0  0  0  0  0
  -20.9478   19.3337  -16.2300 H   0  0  0  0  0  0
  1  2  1  0  0  0
  2  3  1  0  0  0
  3  4  1  0  0  0
  4  5  2  0  0  0
  4  9  1  0  0  0
  5  6  1  0  0  0
  5 10  1  0  0  0
  6  7  2  0  0  0
  7  8  1  0  0  0
  8  9  2  0  0  0
 10 11  1  0  0  0
 10 12  1  0  0  0
 12 13  2  0  0  0
 12 14  1  0  0  0
 14 15  2  0  0  0
 14 20  1  0  0  0
 15 16  1  0  0  0
 15 17  1  0  0  0
 17 18  2  0  0  0
 18 19  1  0  0  0
 19 20  2  0  0  0
 19 21  1  0  0  0
 21 22  2  0  0  0
 21 23  2  0  0  0
 21 24  1  0  0  0
 24 25  1  0  0  0
 24 31  1  0  0  0
 25 26  1  0  0  0
 25 30  1  0  0  0
 26 27  1  0  0  0
 27 28  1  0  0  0
 28 29  1  0  0  0
 29 30  1  0  0  0
M  END
>  <CHROM.0>
-63.88449522,67.45993352,-43.28922154,64.99929996,168.58347159,179.54237739
-156.47342409,-165.59076391

>  <CHROM.1>
-175.84628272,-6.29702481,56.23763937,-166.46264694,-12.87348749,-35.79004653
83.69605547,-22.56425235,20.73155743,-12.59742746,-1.89987403,-0.74653126
-2.58884599

>  <Name>
F0917-3007

>  <RI>
2.30137e+07

>  <Rbt.Current_Directory>
/home/adria/Escritorio/rDock_CMTR_LC/2pxcA_model/inputs_sah

>  <Rbt.Executable>
rbdock ($Id: //depot/dev/client3/rdock/2013.1/src/exe/rbdock.cxx#4 $)

>  <Rbt.Library>
libRbt.so (2013.1, Build901 2013/11/27)

>  <Rbt.Parameter_File>
/home/adria/Escritorio/rDock_2013.1_src/data/scripts/dock.prm

>  <Rbt.Receptor>
sah_rdock.prm

>  <SCORE>
-194.681

>  <SCORE.INTER>
-7.58996

>  <SCORE.INTER.CONST>
1

>  <SCORE.INTER.POLAR>
0

>  <SCORE.INTER.REPUL>
0

>  <SCORE.INTER.ROT>
7

>  <SCORE.INTER.VDW>
-19.99

>  <SCORE.INTER.norm>
-0.252999

>  <SCORE.INTRA>
-184.738

>  <SCORE.INTRA.DIHEDRAL>
-0.914372

>  <SCORE.INTRA.DIHEDRAL.0>
14.9174

>  <SCORE.INTRA.POLAR>
0

>  <SCORE.INTRA.POLAR.0>
0

>  <SCORE.INTRA.REPUL>
0

>  <SCORE.INTRA.REPUL.0>
0

>  <SCORE.INTRA.VDW>
-184.281

>  <SCORE.INTRA.VDW.0>
181.593

>  <SCORE.INTRA.norm>
-6.15792

>  <SCORE.RESTR>
0.0125622

>  <SCORE.RESTR.CAVITY>
0.0125622

>  <SCORE.RESTR.norm>
0.000418739

>  <SCORE.SYSTEM>
-2.36621

>  <SCORE.SYSTEM.CONST>
0

>  <SCORE.SYSTEM.DIHEDRAL>
3.23771

>  <SCORE.SYSTEM.POLAR>
-3.65794

>  <SCORE.SYSTEM.VDW>
8.45194

>  <SCORE.SYSTEM.norm>
-0.0788735

>  <SCORE.heavy>
30

>  <SCORE.norm>
-6.48938

$$$$
