F2880-4230
  rDOCK(R)          3D
libRbt.so/2013.1/901 2013/11/27
 33 36  0  0  0  0  0  0  0  0999 V2000
  -15.9010   19.4979  -15.8690 C   0  0  0  0  0  0
  -17.6831   19.5941  -16.4878 O   0  0  0  0  0  0
  -19.1348   19.5928  -16.3872 C   0  0  0  0  0  0
  -19.5939   19.4248  -15.0943 C   0  0  0  0  0  0
  -20.6966   18.6652  -14.8337 C   0  0  0  0  0  0
  -21.5458   18.3899  -15.9084 C   0  0  0  0  0  0
  -22.6535   17.6159  -16.0132 O   0  0  0  0  0  0
  -23.6956   17.8865  -15.1138 C   0  0  0  0  0  0
  -21.2597   18.9375  -17.1699 C   0  0  0  0  0  0
  -20.0619   19.5597  -17.4140 C   0  0  0  0  0  0
  -20.6601   17.9343  -13.2111 S   0  0  0  0  0  0
  -21.7260   17.0313  -13.0956 O   0  0  0  0  0  0
  -19.2530   17.5365  -12.9438 O   0  0  0  0  0  0
  -21.0220   19.1570  -12.0733 N   0  0  0  0  0  0
  -21.1393   20.6050  -12.4198 C   0  0  0  0  0  0
  -22.3122   21.4518  -11.6548 C   0  0  0  0  0  0
  -23.2529   20.8724  -10.5661 N   0  0  0  0  0  0
  -24.0427   22.1126   -9.5147 C   0  0  0  0  0  0
  -25.8503   21.8860   -8.8122 C   0  0  0  0  0  0
  -26.8829   20.4456   -9.4113 O   0  0  0  0  0  0
  -26.2260   19.3387  -10.7977 C   0  0  0  0  0  0
  -24.3323   19.6101  -11.2793 C   0  0  0  0  0  0
  -22.1192   23.0556  -11.7584 C   0  0  0  0  0  0
  -21.0260   24.0055  -11.2647 C   0  0  0  0  0  0
  -19.6480   23.8682  -10.7453 C   0  0  0  0  0  0
  -18.8663   24.8575  -10.1178 C   0  0  0  0  0  0
  -19.2825   26.1550  -10.1897 C   0  0  0  0  0  0
  -20.5032   26.4072  -10.7998 C   0  0  0  0  0  0
  -21.3649   25.3875  -11.2823 C   0  0  0  0  0  0
  -22.5852   25.8345  -11.7956 C   0  0  0  0  0  0
  -23.5143   24.9821  -12.3628 C   0  0  0  0  0  0
  -23.2796   23.6227  -12.3599 C   0  0  0  0  0  0
  -20.4406   18.9694  -11.2497 H   0  0  0  0  0  0
  1  2  1  0  0  0
  2  3  1  0  0  0
  3  4  2  0  0  0
  3 10  1  0  0  0
  4  5  1  0  0  0
  5  6  2  0  0  0
  5 11  1  0  0  0
  6  7  1  0  0  0
  6  9  1  0  0  0
  7  8  1  0  0  0
  9 10  2  0  0  0
 11 12  2  0  0  0
 11 13  2  0  0  0
 11 14  1  0  0  0
 14 15  1  0  0  0
 14 33  1  0  0  0
 15 16  1  0  0  0
 16 17  1  0  0  0
 16 23  1  0  0  0
 17 18  1  0  0  0
 17 22  1  0  0  0
 18 19  1  0  0  0
 19 20  1  0  0  0
 20 21  1  0  0  0
 21 22  1  0  0  0
 23 24  2  0  0  0
 23 32  1  0  0  0
 24 25  1  0  0  0
 24 29  1  0  0  0
 25 26  2  0  0  0
 26 27  1  0  0  0
 27 28  2  0  0  0
 28 29  1  0  0  0
 29 30  2  0  0  0
 30 31  1  0  0  0
 31 32  2  0  0  0
M  END
>  <CHROM.0>
-56.15295610,-71.41238749,-164.66058908,63.40306458,33.94463209,-57.52567029
83.94065716,-53.52612113

>  <CHROM.1>
-0.05943571,-171.92424784,55.26947285,-8.06287928,141.77381028,2.79383076
160.12876100,-62.57562722,-21.58172281,20.84427346,-12.79766549,-1.15112915
0.51923034,0.53252090

>  <Name>
F2880-4230

>  <RI>
3.85826e+07

>  <Rbt.Current_Directory>
/home/adria/Escritorio/rDock_CMTR_LC/2pxcA_model/inputs_sah

>  <Rbt.Executable>
rbdock ($Id: //depot/dev/client3/rdock/2013.1/src/exe/rbdock.cxx#4 $)

>  <Rbt.Library>
libRbt.so (2013.1, Build901 2013/11/27)

>  <Rbt.Parameter_File>
/home/adria/Escritorio/rDock_2013.1_src/data/scripts/dock.prm

>  <Rbt.Receptor>
sah_rdock.prm

>  <SCORE>
-189.208

>  <SCORE.INTER>
-15.4264

>  <SCORE.INTER.CONST>
1

>  <SCORE.INTER.POLAR>
-1.67339

>  <SCORE.INTER.REPUL>
0.00528629

>  <SCORE.INTER.ROT>
8

>  <SCORE.INTER.VDW>
-23.1633

>  <SCORE.INTER.norm>
-0.482076

>  <SCORE.INTRA>
-180.508

>  <SCORE.INTRA.DIHEDRAL>
2.6045

>  <SCORE.INTRA.DIHEDRAL.0>
9.64994

>  <SCORE.INTRA.POLAR>
0

>  <SCORE.INTRA.POLAR.0>
0

>  <SCORE.INTRA.REPUL>
0

>  <SCORE.INTRA.REPUL.0>
0

>  <SCORE.INTRA.VDW>
-181.81

>  <SCORE.INTRA.VDW.0>
178.431

>  <SCORE.INTRA.norm>
-5.64088

>  <SCORE.RESTR>
0.00220262

>  <SCORE.RESTR.CAVITY>
0.00220262

>  <SCORE.RESTR.norm>
6.88319e-05

>  <SCORE.SYSTEM>
6.72457

>  <SCORE.SYSTEM.CONST>
0

>  <SCORE.SYSTEM.DIHEDRAL>
8.5207

>  <SCORE.SYSTEM.POLAR>
-3.29954

>  <SCORE.SYSTEM.REPUL>
0.0383175

>  <SCORE.SYSTEM.VDW>
13.4911

>  <SCORE.SYSTEM.norm>
0.210143

>  <SCORE.heavy>
32

>  <SCORE.norm>
-5.91274

$$$$
F2880-4230
  rDOCK(R)          3D
libRbt.so/2013.1/901 2013/11/27
 33 36  0  0  0  0  0  0  0  0999 V2000
  -24.6579   19.1160   -7.9621 C   0  0  0  0  0  0
  -23.9326   20.5469   -8.9595 O   0  0  0  0  0  0
  -23.6950   21.9347   -9.3271 C   0  0  0  0  0  0
  -23.1320   22.0802  -10.5811 C   0  0  0  0  0  0
  -22.1793   23.0275  -10.8176 C   0  0  0  0  0  0
  -22.0730   24.0659   -9.8890 C   0  0  0  0  0  0
  -21.2008   25.0976   -9.7788 O   0  0  0  0  0  0
  -21.3524   26.1482  -10.6961 C   0  0  0  0  0  0
  -22.9652   24.1146   -8.8051 C   0  0  0  0  0  0
  -23.7962   23.0593   -8.5271 C   0  0  0  0  0  0
  -21.0649   22.5697  -12.1278 S   0  0  0  0  0  0
  -21.8127   22.1070  -13.2194 O   0  0  0  0  0  0
  -20.0705   23.6670  -12.2576 O   0  0  0  0  0  0
  -20.1814   21.1998  -11.6146 N   0  0  0  0  0  0
  -19.1401   20.5245  -12.4453 C   0  0  0  0  0  0
  -19.6378   19.2724  -13.3740 C   0  0  0  0  0  0
  -21.0261   18.5893  -13.2655 N   0  0  0  0  0  0
  -21.5305   18.1700  -11.5812 C   0  0  0  0  0  0
  -23.3930   18.2468  -11.0005 C   0  0  0  0  0  0
  -24.6734   18.9775  -12.1522 O   0  0  0  0  0  0
  -24.1215   19.7735  -13.7772 C   0  0  0  0  0  0
  -22.2374   19.4704  -14.2774 C   0  0  0  0  0  0
  -18.7770   19.0982  -14.7337 C   0  0  0  0  0  0
  -18.3576   17.8734  -15.5494 C   0  0  0  0  0  0
  -18.7371   16.4448  -15.6006 C   0  0  0  0  0  0
  -18.0682   15.4043  -16.2739 C   0  0  0  0  0  0
  -17.1065   15.7339  -17.1842 C   0  0  0  0  0  0
  -16.7826   17.0763  -17.3217 C   0  0  0  0  0  0
  -17.3432   18.1050  -16.5201 C   0  0  0  0  0  0
  -16.8352   19.3852  -16.7556 C   0  0  0  0  0  0
  -17.3133   20.5094  -16.1082 C   0  0  0  0  0  0
  -18.2759   20.3718  -15.1296 C   0  0  0  0  0  0
  -20.8597   20.5581  -11.1906 H   0  0  0  0  0  0
  1  2  1  0  0  0
  2  3  1  0  0  0
  3  4  2  0  0  0
  3 10  1  0  0  0
  4  5  1  0  0  0
  5  6  2  0  0  0
  5 11  1  0  0  0
  6  7  1  0  0  0
  6  9  1  0  0  0
  7  8  1  0  0  0
  9 10  2  0  0  0
 11 12  2  0  0  0
 11 13  2  0  0  0
 11 14  1  0  0  0
 14 15  1  0  0  0
 14 33  1  0  0  0
 15 16  1  0  0  0
 16 17  1  0  0  0
 16 23  1  0  0  0
 17 18  1  0  0  0
 17 22  1  0  0  0
 18 19  1  0  0  0
 19 20  1  0  0  0
 20 21  1  0  0  0
 21 22  1  0  0  0
 23 24  2  0  0  0
 23 32  1  0  0  0
 24 25  1  0  0  0
 24 29  1  0  0  0
 25 26  2  0  0  0
 26 27  1  0  0  0
 27 28  2  0  0  0
 28 29  1  0  0  0
 29 30  2  0  0  0
 30 31  1  0  0  0
 31 32  2  0  0  0
M  END
>  <CHROM.0>
-59.71561300,-69.93505407,109.25552324,69.42013770,-30.16713681,-171.08424147
84.39013107,-154.17180711

>  <CHROM.1>
-165.37562811,47.27841318,73.80998979,-179.78212104,-92.76574708,-11.34013557
-47.57751162,146.53861380,-20.89573757,20.51696592,-12.62759827,2.31149797
0.68218425,0.36676754

>  <Name>
F2880-4230

>  <RI>
3.85826e+07

>  <Rbt.Current_Directory>
/home/adria/Escritorio/rDock_CMTR_LC/2pxcA_model/inputs_sah

>  <Rbt.Executable>
rbdock ($Id: //depot/dev/client3/rdock/2013.1/src/exe/rbdock.cxx#4 $)

>  <Rbt.Library>
libRbt.so (2013.1, Build901 2013/11/27)

>  <Rbt.Parameter_File>
/home/adria/Escritorio/rDock_2013.1_src/data/scripts/dock.prm

>  <Rbt.Receptor>
sah_rdock.prm

>  <SCORE>
-198.213

>  <SCORE.INTER>
-10.7567

>  <SCORE.INTER.CONST>
1

>  <SCORE.INTER.POLAR>
0

>  <SCORE.INTER.REPUL>
0

>  <SCORE.INTER.ROT>
8

>  <SCORE.INTER.VDW>
-24.1567

>  <SCORE.INTER.norm>
-0.336148

>  <SCORE.INTRA>
-180.643

>  <SCORE.INTRA.DIHEDRAL>
1.86656

>  <SCORE.INTRA.DIHEDRAL.0>
9.64994

>  <SCORE.INTRA.POLAR>
0

>  <SCORE.INTRA.POLAR.0>
0

>  <SCORE.INTRA.REPUL>
0

>  <SCORE.INTRA.REPUL.0>
0

>  <SCORE.INTRA.VDW>
-181.577

>  <SCORE.INTRA.VDW.0>
178.431

>  <SCORE.INTRA.norm>
-5.6451

>  <SCORE.RESTR>
0

>  <SCORE.RESTR.CAVITY>
0

>  <SCORE.RESTR.norm>
0

>  <SCORE.SYSTEM>
-6.81295

>  <SCORE.SYSTEM.CONST>
0

>  <SCORE.SYSTEM.DIHEDRAL>
10.1801

>  <SCORE.SYSTEM.POLAR>
-4.53846

>  <SCORE.SYSTEM.REPUL>
0.0326092

>  <SCORE.SYSTEM.VDW>
3.36472

>  <SCORE.SYSTEM.norm>
-0.212905

>  <SCORE.heavy>
32

>  <SCORE.norm>
-6.19415

$$$$
F2880-4230
  rDOCK(R)          3D
libRbt.so/2013.1/901 2013/11/27
 33 36  0  0  0  0  0  0  0  0999 V2000
  -14.2663   20.6741  -16.8732 C   0  0  0  0  0  0
  -16.0638   20.5119  -16.3155 O   0  0  0  0  0  0
  -17.4819   20.2127  -16.4460 C   0  0  0  0  0  0
  -18.1630   20.2537  -15.2439 C   0  0  0  0  0  0
  -19.1464   19.3511  -14.9627 C   0  0  0  0  0  0
  -19.6929   18.6516  -16.0417 C   0  0  0  0  0  0
  -20.6027   17.6490  -16.1046 O   0  0  0  0  0  0
  -21.9441   18.0051  -15.8993 C   0  0  0  0  0  0
  -19.2509   18.9391  -17.3436 C   0  0  0  0  0  0
  -18.1554   19.7365  -17.5571 C   0  0  0  0  0  0
  -19.3209   19.0457  -13.2179 S   0  0  0  0  0  0
  -19.2903   17.6624  -12.9935 O   0  0  0  0  0  0
  -18.4029   19.9818  -12.5175 O   0  0  0  0  0  0
  -20.8995   19.5099  -12.7563 N   0  0  0  0  0  0
  -21.4395   19.3539  -11.3726 C   0  0  0  0  0  0
  -22.7253   20.2850  -10.9753 C   0  0  0  0  0  0
  -22.6452   21.7875  -10.5987 N   0  0  0  0  0  0
  -21.6753   22.8000  -11.7395 C   0  0  0  0  0  0
  -22.1392   24.6535  -12.1414 C   0  0  0  0  0  0
  -23.7530   25.3455  -11.4964 O   0  0  0  0  0  0
  -24.9739   24.2004  -10.6146 C   0  0  0  0  0  0
  -24.2838   22.4098  -10.1572 C   0  0  0  0  0  0
  -24.1407   19.6679  -11.4611 C   0  0  0  0  0  0
  -24.8068   19.5480  -12.8335 C   0  0  0  0  0  0
  -24.3809   19.6936  -14.2424 C   0  0  0  0  0  0
  -25.2040   19.7686  -15.3828 C   0  0  0  0  0  0
  -26.5208   19.4345  -15.2552 C   0  0  0  0  0  0
  -26.9879   19.1298  -13.9845 C   0  0  0  0  0  0
  -26.1908   19.2181  -12.8132 C   0  0  0  0  0  0
  -26.8599   18.9449  -11.6172 C   0  0  0  0  0  0
  -26.2206   18.9246  -10.3914 C   0  0  0  0  0  0
  -24.8853   19.2625  -10.3161 C   0  0  0  0  0  0
  -21.5291   19.1721  -13.4919 H   0  0  0  0  0  0
  1  2  1  0  0  0
  2  3  1  0  0  0
  3  4  2  0  0  0
  3 10  1  0  0  0
  4  5  1  0  0  0
  5  6  2  0  0  0
  5 11  1  0  0  0
  6  7  1  0  0  0
  6  9  1  0  0  0
  7  8  1  0  0  0
  9 10  2  0  0  0
 11 12  2  0  0  0
 11 13  2  0  0  0
 11 14  1  0  0  0
 14 15  1  0  0  0
 14 33  1  0  0  0
 15 16  1  0  0  0
 16 17  1  0  0  0
 16 23  1  0  0  0
 17 18  1  0  0  0
 17 22  1  0  0  0
 18 19  1  0  0  0
 19 20  1  0  0  0
 20 21  1  0  0  0
 21 22  1  0  0  0
 23 24  2  0  0  0
 23 32  1  0  0  0
 24 25  1  0  0  0
 24 29  1  0  0  0
 25 26  2  0  0  0
 26 27  1  0  0  0
 27 28  2  0  0  0
 28 29  1  0  0  0
 29 30  2  0  0  0
 30 31  1  0  0  0
 31 32  2  0  0  0
M  END
>  <CHROM.0>
179.95465819,68.11941047,110.02212228,63.32010966,-29.96030624,-176.90194478
-156.36788450,-163.12399672

>  <CHROM.1>
171.67095250,-128.65023619,75.61225918,177.58371404,159.60703467,-78.13889155
48.64475175,-73.57738795,-21.74300685,20.13140919,-13.47568106,-0.42873093
0.29303145,0.71104346

>  <Name>
F2880-4230

>  <RI>
3.85826e+07

>  <Rbt.Current_Directory>
/home/adria/Escritorio/rDock_CMTR_LC/2pxcA_model/inputs_sah

>  <Rbt.Executable>
rbdock ($Id: //depot/dev/client3/rdock/2013.1/src/exe/rbdock.cxx#4 $)

>  <Rbt.Library>
libRbt.so (2013.1, Build901 2013/11/27)

>  <Rbt.Parameter_File>
/home/adria/Escritorio/rDock_2013.1_src/data/scripts/dock.prm

>  <Rbt.Receptor>
sah_rdock.prm

>  <SCORE>
-200.658

>  <SCORE.INTER>
-12.6592

>  <SCORE.INTER.CONST>
1

>  <SCORE.INTER.POLAR>
-1.6964

>  <SCORE.INTER.REPUL>
0.00780687

>  <SCORE.INTER.ROT>
8

>  <SCORE.INTER.VDW>
-20.3305

>  <SCORE.INTER.norm>
-0.395601

>  <SCORE.INTRA>
-181.238

>  <SCORE.INTRA.DIHEDRAL>
1.56997

>  <SCORE.INTRA.DIHEDRAL.0>
9.64994

>  <SCORE.INTRA.POLAR>
0

>  <SCORE.INTRA.POLAR.0>
0

>  <SCORE.INTRA.REPUL>
0

>  <SCORE.INTRA.REPUL.0>
0

>  <SCORE.INTRA.VDW>
-182.023

>  <SCORE.INTRA.VDW.0>
178.431

>  <SCORE.INTRA.norm>
-5.66369

>  <SCORE.RESTR>
0

>  <SCORE.RESTR.CAVITY>
0

>  <SCORE.RESTR.norm>
0

>  <SCORE.SYSTEM>
-6.76013

>  <SCORE.SYSTEM.CONST>
0

>  <SCORE.SYSTEM.DIHEDRAL>
8.98132

>  <SCORE.SYSTEM.POLAR>
-4.32753

>  <SCORE.SYSTEM.VDW>
3.46281

>  <SCORE.SYSTEM.norm>
-0.211254

>  <SCORE.heavy>
32

>  <SCORE.norm>
-6.27055

$$$$
F2880-4230
  rDOCK(R)          3D
libRbt.so/2013.1/901 2013/11/27
 33 36  0  0  0  0  0  0  0  0999 V2000
  -18.3428   14.3878  -19.5246 C   0  0  0  0  0  0
  -16.9122   14.9100  -18.4070 O   0  0  0  0  0  0
  -16.2245   15.7018  -17.3982 C   0  0  0  0  0  0
  -17.0339   16.6495  -16.8004 C   0  0  0  0  0  0
  -16.5526   17.8864  -16.4856 C   0  0  0  0  0  0
  -15.1641   18.0319  -16.4312 C   0  0  0  0  0  0
  -14.3732   19.1152  -16.2361 O   0  0  0  0  0  0
  -14.7781   20.3074  -16.8548 C   0  0  0  0  0  0
  -14.3453   16.9114  -16.6482 C   0  0  0  0  0  0
  -14.8706   15.7330  -17.1140 C   0  0  0  0  0  0
  -17.8167   19.1395  -16.4971 S   0  0  0  0  0  0
  -17.9465   19.6657  -15.2043 O   0  0  0  0  0  0
  -17.5649   20.0020  -17.6813 O   0  0  0  0  0  0
  -19.3162   18.3736  -16.7899 N   0  0  0  0  0  0
  -19.8606   17.2657  -15.9493 C   0  0  0  0  0  0
  -21.1755   17.6113  -15.0384 C   0  0  0  0  0  0
  -21.2370   17.4882  -13.4935 N   0  0  0  0  0  0
  -20.7057   18.9655  -12.5977 C   0  0  0  0  0  0
  -21.5164   19.5076  -10.9063 C   0  0  0  0  0  0
  -23.0308   18.5968  -10.2925 O   0  0  0  0  0  0
  -23.8419   17.2876  -11.3912 C   0  0  0  0  0  0
  -22.8103   16.7565  -12.9866 C   0  0  0  0  0  0
  -22.2576   18.5445  -15.7991 C   0  0  0  0  0  0
  -23.4874   19.3162  -15.3160 C   0  0  0  0  0  0
  -24.0406   19.7315  -14.0088 C   0  0  0  0  0  0
  -25.3241   20.2490  -13.7470 C   0  0  0  0  0  0
  -26.0868   20.6559  -14.8028 C   0  0  0  0  0  0
  -25.5840   20.4471  -16.0793 C   0  0  0  0  0  0
  -24.3624   19.7730  -16.3410 C   0  0  0  0  0  0
  -24.0615   19.5924  -17.6935 C   0  0  0  0  0  0
  -22.8834   19.0119  -18.1256 C   0  0  0  0  0  0
  -21.9918   18.5133  -17.1985 C   0  0  0  0  0  0
  -19.3590   18.1937  -17.7986 H   0  0  0  0  0  0
  1  2  1  0  0  0
  2  3  1  0  0  0
  3  4  2  0  0  0
  3 10  1  0  0  0
  4  5  1  0  0  0
  5  6  2  0  0  0
  5 11  1  0  0  0
  6  7  1  0  0  0
  6  9  1  0  0  0
  7  8  1  0  0  0
  9 10  2  0  0  0
 11 12  2  0  0  0
 11 13  2  0  0  0
 11 14  1  0  0  0
 14 15  1  0  0  0
 14 33  1  0  0  0
 15 16  1  0  0  0
 16 17  1  0  0  0
 16 23  1  0  0  0
 17 18  1  0  0  0
 17 22  1  0  0  0
 18 19  1  0  0  0
 19 20  1  0  0  0
 20 21  1  0  0  0
 21 22  1  0  0  0
 23 24  2  0  0  0
 23 32  1  0  0  0
 24 25  1  0  0  0
 24 29  1  0  0  0
 25 26  2  0  0  0
 26 27  1  0  0  0
 27 28  2  0  0  0
 28 29  1  0  0  0
 29 30  2  0  0  0
 30 31  1  0  0  0
 31 32  2  0  0  0
M  END
>  <CHROM.0>
-57.87447003,68.08588848,-4.95352497,-59.74846045,-30.56608910,67.29267966
82.60824315,-148.34818101

>  <CHROM.1>
4.70973820,116.93872508,-39.28824203,56.31226687,110.91366433,-120.98311632
88.06320072,-167.81674120,-19.99234941,18.34242725,-15.63974779,0.38931258
0.17921077,-1.67505092

>  <Name>
F2880-4230

>  <RI>
3.85826e+07

>  <Rbt.Current_Directory>
/home/adria/Escritorio/rDock_CMTR_LC/2pxcA_model/inputs_sah

>  <Rbt.Executable>
rbdock ($Id: //depot/dev/client3/rdock/2013.1/src/exe/rbdock.cxx#4 $)

>  <Rbt.Library>
libRbt.so (2013.1, Build901 2013/11/27)

>  <Rbt.Parameter_File>
/home/adria/Escritorio/rDock_2013.1_src/data/scripts/dock.prm

>  <Rbt.Receptor>
sah_rdock.prm

>  <SCORE>
-200.063

>  <SCORE.INTER>
-15.2699

>  <SCORE.INTER.CONST>
1

>  <SCORE.INTER.POLAR>
-1.93145

>  <SCORE.INTER.REPUL>
0.161709

>  <SCORE.INTER.ROT>
8

>  <SCORE.INTER.VDW>
-22.9115

>  <SCORE.INTER.norm>
-0.477184

>  <SCORE.INTRA>
-178.823

>  <SCORE.INTRA.DIHEDRAL>
0.80297

>  <SCORE.INTRA.DIHEDRAL.0>
9.64994

>  <SCORE.INTRA.POLAR>
0

>  <SCORE.INTRA.POLAR.0>
0

>  <SCORE.INTRA.REPUL>
0

>  <SCORE.INTRA.REPUL.0>
0

>  <SCORE.INTRA.VDW>
-179.224

>  <SCORE.INTRA.VDW.0>
178.431

>  <SCORE.INTRA.norm>
-5.58821

>  <SCORE.RESTR>
0

>  <SCORE.RESTR.CAVITY>
0

>  <SCORE.RESTR.norm>
0

>  <SCORE.SYSTEM>
-5.97078

>  <SCORE.SYSTEM.CONST>
0

>  <SCORE.SYSTEM.DIHEDRAL>
9.94641

>  <SCORE.SYSTEM.POLAR>
-4.19307

>  <SCORE.SYSTEM.VDW>
3.31245

>  <SCORE.SYSTEM.norm>
-0.186587

>  <SCORE.heavy>
32

>  <SCORE.norm>
-6.25198

$$$$
F2880-4230
  rDOCK(R)          3D
libRbt.so/2013.1/901 2013/11/27
 33 36  0  0  0  0  0  0  0  0999 V2000
  -25.5381   20.2184  -14.5616 C   0  0  0  0  0  0
  -24.1146   19.2404  -15.3267 O   0  0  0  0  0  0
  -22.7757   18.6774  -15.4159 C   0  0  0  0  0  0
  -21.8526   19.3319  -14.6221 C   0  0  0  0  0  0
  -20.5769   19.5429  -15.0567 C   0  0  0  0  0  0
  -20.1353   18.7646  -16.1297 C   0  0  0  0  0  0
  -18.9840   18.7766  -16.8449 O   0  0  0  0  0  0
  -18.7531   19.9065  -17.6436 C   0  0  0  0  0  0
  -20.9879   17.7866  -16.6678 C   0  0  0  0  0  0
  -22.3082   17.7224  -16.3015 C   0  0  0  0  0  0
  -19.8362   20.9926  -14.3369 S   0  0  0  0  0  0
  -18.5394   21.1414  -14.8477 O   0  0  0  0  0  0
  -20.8462   22.0807  -14.4114 O   0  0  0  0  0  0
  -19.5984   20.6920  -12.6715 N   0  0  0  0  0  0
  -20.7122   20.5190  -11.6918 C   0  0  0  0  0  0
  -21.5915   21.8521  -11.3346 C   0  0  0  0  0  0
  -21.4027   23.2397  -12.0015 N   0  0  0  0  0  0
  -22.9317   24.0151  -12.5744 C   0  0  0  0  0  0
  -23.2038   25.9478  -12.5233 C   0  0  0  0  0  0
  -21.9357   27.0204  -11.6622 O   0  0  0  0  0  0
  -20.5100   26.2077  -10.7210 C   0  0  0  0  0  0
  -20.2981   24.2671  -11.0057 C   0  0  0  0  0  0
  -22.9880   21.5200  -10.5864 C   0  0  0  0  0  0
  -23.9922   20.3732  -10.7197 C   0  0  0  0  0  0
  -24.0066   19.0359  -11.3512 C   0  0  0  0  0  0
  -25.1209   18.2017  -11.5658 C   0  0  0  0  0  0
  -26.2890   18.5033  -10.9281 C   0  0  0  0  0  0
  -26.3310   19.6704  -10.1785 C   0  0  0  0  0  0
  -25.2550   20.5931  -10.1019 C   0  0  0  0  0  0
  -25.5142   21.7477   -9.3587 C   0  0  0  0  0  0
  -24.5577   22.7196   -9.1305 C   0  0  0  0  0  0
  -23.3152   22.6009   -9.7177 C   0  0  0  0  0  0
  -18.8644   21.3375  -12.3612 H   0  0  0  0  0  0
  1  2  1  0  0  0
  2  3  1  0  0  0
  3  4  2  0  0  0
  3 10  1  0  0  0
  4  5  1  0  0  0
  5  6  2  0  0  0
  5 11  1  0  0  0
  6  7  1  0  0  0
  6  9  1  0  0  0
  7  8  1  0  0  0
  9 10  2  0  0  0
 11 12  2  0  0  0
 11 13  2  0  0  0
 11 14  1  0  0  0
 14 15  1  0  0  0
 14 33  1  0  0  0
 15 16  1  0  0  0
 16 17  1  0  0  0
 16 23  1  0  0  0
 17 18  1  0  0  0
 17 22  1  0  0  0
 18 19  1  0  0  0
 19 20  1  0  0  0
 20 21  1  0  0  0
 21 22  1  0  0  0
 23 24  2  0  0  0
 23 32  1  0  0  0
 24 25  1  0  0  0
 24 29  1  0  0  0
 25 26  2  0  0  0
 26 27  1  0  0  0
 27 28  2  0  0  0
 28 29  1  0  0  0
 29 30  2  0  0  0
 30 31  1  0  0  0
 31 32  2  0  0  0
M  END
>  <CHROM.0>
42.41691968,-76.77219390,-165.88774663,-59.99372040,-30.27636001,-48.79051586
-157.51102019,-159.71507456

>  <CHROM.1>
-21.31275293,-179.31689119,-67.11818487,-66.83361848,-69.89611173,3.91551138
131.72939884,-35.65460102,-22.15582972,21.09319038,-13.00305605,0.96098474
-0.62097613,-2.53425669

>  <Name>
F2880-4230

>  <RI>
3.85826e+07

>  <Rbt.Current_Directory>
/home/adria/Escritorio/rDock_CMTR_LC/2pxcA_model/inputs_sah

>  <Rbt.Executable>
rbdock ($Id: //depot/dev/client3/rdock/2013.1/src/exe/rbdock.cxx#4 $)

>  <Rbt.Library>
libRbt.so (2013.1, Build901 2013/11/27)

>  <Rbt.Parameter_File>
/home/adria/Escritorio/rDock_2013.1_src/data/scripts/dock.prm

>  <Rbt.Receptor>
sah_rdock.prm

>  <SCORE>
-201.106

>  <SCORE.INTER>
-15.104

>  <SCORE.INTER.CONST>
1

>  <SCORE.INTER.POLAR>
-2.54157

>  <SCORE.INTER.REPUL>
0.149025

>  <SCORE.INTER.ROT>
8

>  <SCORE.INTER.VDW>
-20.6078

>  <SCORE.INTER.norm>
-0.472

>  <SCORE.INTRA>
-183.228

>  <SCORE.INTRA.DIHEDRAL>
1.0861

>  <SCORE.INTRA.DIHEDRAL.0>
9.64994

>  <SCORE.INTRA.POLAR>
0

>  <SCORE.INTRA.POLAR.0>
0

>  <SCORE.INTRA.REPUL>
0

>  <SCORE.INTRA.REPUL.0>
0

>  <SCORE.INTRA.VDW>
-183.771

>  <SCORE.INTRA.VDW.0>
178.431

>  <SCORE.INTRA.norm>
-5.72586

>  <SCORE.RESTR>
0

>  <SCORE.RESTR.CAVITY>
0

>  <SCORE.RESTR.norm>
0

>  <SCORE.SYSTEM>
-2.77423

>  <SCORE.SYSTEM.CONST>
0

>  <SCORE.SYSTEM.DIHEDRAL>
8.72855

>  <SCORE.SYSTEM.POLAR>
-4.02154

>  <SCORE.SYSTEM.REPUL>
0.159469

>  <SCORE.SYSTEM.VDW>
5.7374

>  <SCORE.SYSTEM.norm>
-0.0866948

>  <SCORE.heavy>
32

>  <SCORE.norm>
-6.28455

$$$$
F2880-4230
  rDOCK(R)          3D
libRbt.so/2013.1/901 2013/11/27
 33 36  0  0  0  0  0  0  0  0999 V2000
  -25.0551   22.6846   -7.9044 C   0  0  0  0  0  0
  -23.7662   23.9804   -8.3820 O   0  0  0  0  0  0
  -22.8719   24.7138   -9.2651 C   0  0  0  0  0  0
  -22.5803   24.0367  -10.4344 C   0  0  0  0  0  0
  -21.3293   24.0781  -10.9766 C   0  0  0  0  0  0
  -20.4836   25.1024  -10.5434 C   0  0  0  0  0  0
  -19.1831   25.3771  -10.8083 O   0  0  0  0  0  0
  -18.2296   24.7341  -10.0048 C   0  0  0  0  0  0
  -20.9656   26.0524   -9.6278 C   0  0  0  0  0  0
  -22.1707   25.8762   -8.9967 C   0  0  0  0  0  0
  -20.9402   22.6196  -11.9198 S   0  0  0  0  0  0
  -21.2305   22.8607  -13.2697 O   0  0  0  0  0  0
  -19.6029   22.1527  -11.4688 O   0  0  0  0  0  0
  -22.0385   21.3906  -11.4683 N   0  0  0  0  0  0
  -21.6431   19.9702  -11.2304 C   0  0  0  0  0  0
  -21.9989   18.8992  -12.4154 C   0  0  0  0  0  0
  -23.4337   18.5563  -12.8946 N   0  0  0  0  0  0
  -24.4920   17.8113  -11.6327 C   0  0  0  0  0  0
  -26.4122   18.1541  -11.5468 C   0  0  0  0  0  0
  -27.1529   19.4556  -12.6679 O   0  0  0  0  0  0
  -26.0152   20.5237  -13.7374 C   0  0  0  0  0  0
  -24.1318   19.9426  -13.8209 C   0  0  0  0  0  0
  -20.7443   18.5721  -13.3846 C   0  0  0  0  0  0
  -19.7789   19.4608  -14.1717 C   0  0  0  0  0  0
  -19.4264   20.8971  -14.1918 C   0  0  0  0  0  0
  -18.6632   21.5786  -15.1596 C   0  0  0  0  0  0
  -17.9501   20.8416  -16.0597 C   0  0  0  0  0  0
  -18.0961   19.4620  -16.0225 C   0  0  0  0  0  0
  -18.9955   18.7912  -15.1530 C   0  0  0  0  0  0
  -19.0569   17.4048  -15.3161 C   0  0  0  0  0  0
  -19.8330   16.5915  -14.5112 C   0  0  0  0  0  0
  -20.6471   17.1609  -13.5542 C   0  0  0  0  0  0
  -22.8619   21.5009  -12.0696 H   0  0  0  0  0  0
  1  2  1  0  0  0
  2  3  1  0  0  0
  3  4  2  0  0  0
  3 10  1  0  0  0
  4  5  1  0  0  0
  5  6  2  0  0  0
  5 11  1  0  0  0
  6  7  1  0  0  0
  6  9  1  0  0  0
  7  8  1  0  0  0
  9 10  2  0  0  0
 11 12  2  0  0  0
 11 13  2  0  0  0
 11 14  1  0  0  0
 14 15  1  0  0  0
 14 33  1  0  0  0
 15 16  1  0  0  0
 16 17  1  0  0  0
 16 23  1  0  0  0
 17 18  1  0  0  0
 17 22  1  0  0  0
 18 19  1  0  0  0
 19 20  1  0  0  0
 20 21  1  0  0  0
 21 22  1  0  0  0
 23 24  2  0  0  0
 23 32  1  0  0  0
 24 25  1  0  0  0
 24 29  1  0  0  0
 25 26  2  0  0  0
 26 27  1  0  0  0
 27 28  2  0  0  0
 28 29  1  0  0  0
 29 30  2  0  0  0
 30 31  1  0  0  0
 31 32  2  0  0  0
M  END
>  <CHROM.0>
-177.00968594,-165.35375864,-164.04242418,64.32374377,-30.81344454,63.77374661
-156.42657302,-163.98987689

>  <CHROM.1>
-19.62065311,94.78956218,-86.00904182,-137.30718556,-103.17290861,-62.42618350
-62.40729610,-51.96196833,-21.57904291,21.33688269,-12.19305885,1.72853452
0.39081252,0.59652036

>  <Name>
F2880-4230

>  <RI>
3.85826e+07

>  <Rbt.Current_Directory>
/home/adria/Escritorio/rDock_CMTR_LC/2pxcA_model/inputs_sah

>  <Rbt.Executable>
rbdock ($Id: //depot/dev/client3/rdock/2013.1/src/exe/rbdock.cxx#4 $)

>  <Rbt.Library>
libRbt.so (2013.1, Build901 2013/11/27)

>  <Rbt.Parameter_File>
/home/adria/Escritorio/rDock_2013.1_src/data/scripts/dock.prm

>  <Rbt.Receptor>
sah_rdock.prm

>  <SCORE>
-198.189

>  <SCORE.INTER>
-12.1673

>  <SCORE.INTER.CONST>
1

>  <SCORE.INTER.POLAR>
0

>  <SCORE.INTER.REPUL>
0

>  <SCORE.INTER.ROT>
8

>  <SCORE.INTER.VDW>
-25.5673

>  <SCORE.INTER.norm>
-0.380228

>  <SCORE.INTRA>
-180.121

>  <SCORE.INTRA.DIHEDRAL>
4.81022

>  <SCORE.INTRA.DIHEDRAL.0>
9.64994

>  <SCORE.INTRA.POLAR>
0

>  <SCORE.INTRA.POLAR.0>
0

>  <SCORE.INTRA.REPUL>
0

>  <SCORE.INTRA.REPUL.0>
0

>  <SCORE.INTRA.VDW>
-182.527

>  <SCORE.INTRA.VDW.0>
178.431

>  <SCORE.INTRA.norm>
-5.62879

>  <SCORE.RESTR>
0

>  <SCORE.RESTR.CAVITY>
0

>  <SCORE.RESTR.norm>
0

>  <SCORE.SYSTEM>
-5.89988

>  <SCORE.SYSTEM.CONST>
0

>  <SCORE.SYSTEM.DIHEDRAL>
6.78893

>  <SCORE.SYSTEM.POLAR>
-3.69184

>  <SCORE.SYSTEM.VDW>
3.2579

>  <SCORE.SYSTEM.norm>
-0.184371

>  <SCORE.heavy>
32

>  <SCORE.norm>
-6.19339

$$$$
F2880-4230
  rDOCK(R)          3D
libRbt.so/2013.1/901 2013/11/27
 33 36  0  0  0  0  0  0  0  0999 V2000
  -17.5019   16.0476  -17.3036 C   0  0  0  0  0  0
  -19.2038   16.8634  -17.3827 O   0  0  0  0  0  0
  -20.3449   17.6247  -16.8972 C   0  0  0  0  0  0
  -20.0887   18.3058  -15.7220 C   0  0  0  0  0  0
  -21.0357   18.4015  -14.7449 C   0  0  0  0  0  0
  -22.3566   18.1342  -15.1133 C   0  0  0  0  0  0
  -23.5013   18.0578  -14.3914 O   0  0  0  0  0  0
  -23.4850   17.2048  -13.2777 C   0  0  0  0  0  0
  -22.6506   17.8354  -16.4540 C   0  0  0  0  0  0
  -21.6487   17.5979  -17.3602 C   0  0  0  0  0  0
  -20.3314   18.5660  -13.1185 S   0  0  0  0  0  0
  -20.3268   17.3100  -12.4962 O   0  0  0  0  0  0
  -19.0986   19.3848  -13.2582 O   0  0  0  0  0  0
  -21.4045   19.4991  -12.1707 N   0  0  0  0  0  0
  -20.9648   20.5887  -11.2488 C   0  0  0  0  0  0
  -21.9309   21.9061  -11.1535 C   0  0  0  0  0  0
  -21.6563   23.2564  -11.8657 N   0  0  0  0  0  0
  -23.1333   24.1010  -12.4757 C   0  0  0  0  0  0
  -23.2901   26.0471  -12.4921 C   0  0  0  0  0  0
  -21.9651   27.0715  -11.6587 O   0  0  0  0  0  0
  -20.5953   26.2083  -10.6800 C   0  0  0  0  0  0
  -20.4978   24.2500  -10.8972 C   0  0  0  0  0  0
  -23.4344   21.5666  -10.6590 C   0  0  0  0  0  0
  -24.7277   21.2424  -11.4096 C   0  0  0  0  0  0
  -25.0934   20.8697  -12.7934 C   0  0  0  0  0  0
  -26.3830   20.8316  -13.3581 C   0  0  0  0  0  0
  -27.4592   20.9006  -12.5221 C   0  0  0  0  0  0
  -27.2136   21.0980  -11.1706 C   0  0  0  0  0  0
  -25.9169   21.3025  -10.6303 C   0  0  0  0  0  0
  -25.8792   21.5605   -9.2575 C   0  0  0  0  0  0
  -24.6964   21.7209   -8.5598 C   0  0  0  0  0  0
  -23.4978   21.7077   -9.2427 C   0  0  0  0  0  0
  -22.0713   18.8413  -11.7533 H   0  0  0  0  0  0
  1  2  1  0  0  0
  2  3  1  0  0  0
  3  4  2  0  0  0
  3 10  1  0  0  0
  4  5  1  0  0  0
  5  6  2  0  0  0
  5 11  1  0  0  0
  6  7  1  0  0  0
  6  9  1  0  0  0
  7  8  1  0  0  0
  9 10  2  0  0  0
 11 12  2  0  0  0
 11 13  2  0  0  0
 11 14  1  0  0  0
 14 15  1  0  0  0
 14 33  1  0  0  0
 15 16  1  0  0  0
 16 17  1  0  0  0
 16 23  1  0  0  0
 17 18  1  0  0  0
 17 22  1  0  0  0
 18 19  1  0  0  0
 19 20  1  0  0  0
 20 21  1  0  0  0
 21 22  1  0  0  0
 23 24  2  0  0  0
 23 32  1  0  0  0
 24 25  1  0  0  0
 24 29  1  0  0  0
 25 26  2  0  0  0
 26 27  1  0  0  0
 27 28  2  0  0  0
 28 29  1  0  0  0
 29 30  2  0  0  0
 30 31  1  0  0  0
 31 32  2  0  0  0
M  END
>  <CHROM.0>
-56.42650845,-68.22324204,113.29364214,-55.92141677,-28.38771155,-48.47474233
85.27694739,-154.68305635

>  <CHROM.1>
13.09937739,-98.41927836,-52.68017602,-136.79531658,142.95318126,-101.61708587
143.61185297,-92.53740412,-22.35418544,20.44239626,-12.90563916,-1.11295067
0.31848087,0.52476224

>  <Name>
F2880-4230

>  <RI>
3.85826e+07

>  <Rbt.Current_Directory>
/home/adria/Escritorio/rDock_CMTR_LC/2pxcA_model/inputs_sah

>  <Rbt.Executable>
rbdock ($Id: //depot/dev/client3/rdock/2013.1/src/exe/rbdock.cxx#4 $)

>  <Rbt.Library>
libRbt.so (2013.1, Build901 2013/11/27)

>  <Rbt.Parameter_File>
/home/adria/Escritorio/rDock_2013.1_src/data/scripts/dock.prm

>  <Rbt.Receptor>
sah_rdock.prm

>  <SCORE>
-199.86

>  <SCORE.INTER>
-12.4458

>  <SCORE.INTER.CONST>
1

>  <SCORE.INTER.POLAR>
-2.4649

>  <SCORE.INTER.REPUL>
0.130864

>  <SCORE.INTER.ROT>
8

>  <SCORE.INTER.VDW>
-18.1195

>  <SCORE.INTER.norm>
-0.388932

>  <SCORE.INTRA>
-181.313

>  <SCORE.INTRA.DIHEDRAL>
2.11844

>  <SCORE.INTRA.DIHEDRAL.0>
9.64994

>  <SCORE.INTRA.POLAR>
0

>  <SCORE.INTRA.POLAR.0>
0

>  <SCORE.INTRA.REPUL>
0

>  <SCORE.INTRA.REPUL.0>
0

>  <SCORE.INTRA.VDW>
-182.372

>  <SCORE.INTRA.VDW.0>
178.431

>  <SCORE.INTRA.norm>
-5.66602

>  <SCORE.RESTR>
0.106825

>  <SCORE.RESTR.CAVITY>
0.106825

>  <SCORE.RESTR.norm>
0.00333829

>  <SCORE.SYSTEM>
-6.20862

>  <SCORE.SYSTEM.CONST>
0

>  <SCORE.SYSTEM.DIHEDRAL>
10.4228

>  <SCORE.SYSTEM.POLAR>
-4.53999

>  <SCORE.SYSTEM.REPUL>
0.0289143

>  <SCORE.SYSTEM.VDW>
3.8714

>  <SCORE.SYSTEM.norm>
-0.194019

>  <SCORE.heavy>
32

>  <SCORE.norm>
-6.24564

$$$$
F2880-4230
  rDOCK(R)          3D
libRbt.so/2013.1/901 2013/11/27
 33 36  0  0  0  0  0  0  0  0999 V2000
  -25.9534   20.3913  -14.8126 C   0  0  0  0  0  0
  -24.2730   19.5439  -14.9757 O   0  0  0  0  0  0
  -23.2570   18.6955  -15.5803 C   0  0  0  0  0  0
  -22.3548   18.1852  -14.6659 C   0  0  0  0  0  0
  -21.0308   18.0715  -14.9741 C   0  0  0  0  0  0
  -20.6880   18.1205  -16.3277 C   0  0  0  0  0  0
  -19.4890   18.1226  -16.9596 O   0  0  0  0  0  0
  -18.6934   16.9782  -16.7999 C   0  0  0  0  0  0
  -21.7037   18.2311  -17.2917 C   0  0  0  0  0  0
  -22.9981   18.4997  -16.9255 C   0  0  0  0  0  0
  -19.9798   18.1781  -13.5416 S   0  0  0  0  0  0
  -20.2939   17.1275  -12.6684 O   0  0  0  0  0  0
  -18.5964   18.4128  -14.0324 O   0  0  0  0  0  0
  -20.4108   19.5863  -12.6745 N   0  0  0  0  0  0
  -20.6014   20.9254  -13.3078 C   0  0  0  0  0  0
  -21.4061   22.0470  -12.4289 C   0  0  0  0  0  0
  -21.3280   23.5778  -12.6661 N   0  0  0  0  0  0
  -22.9099   24.3623  -13.0529 C   0  0  0  0  0  0
  -23.3480   26.1719  -12.4648 C   0  0  0  0  0  0
  -22.1893   27.0489  -11.2867 O   0  0  0  0  0  0
  -20.7124   26.1150  -10.5617 C   0  0  0  0  0  0
  -20.3302   24.3602  -11.3779 C   0  0  0  0  0  0
  -22.6592   21.4395  -11.6036 C   0  0  0  0  0  0
  -23.4064   21.9083  -10.3534 C   0  0  0  0  0  0
  -23.4802   23.1536   -9.5587 C   0  0  0  0  0  0
  -24.0608   23.3253   -8.2871 C   0  0  0  0  0  0
  -24.8628   22.3340   -7.8013 C   0  0  0  0  0  0
  -24.9815   21.1743   -8.5541 C   0  0  0  0  0  0
  -24.2613   20.9409   -9.7548 C   0  0  0  0  0  0
  -24.4561   19.6822  -10.3294 C   0  0  0  0  0  0
  -23.8812   19.3125  -11.5312 C   0  0  0  0  0  0
  -23.0140   20.1787  -12.1642 C   0  0  0  0  0  0
  -19.8250   19.6007  -11.8330 H   0  0  0  0  0  0
  1  2  1  0  0  0
  2  3  1  0  0  0
  3  4  2  0  0  0
  3 10  1  0  0  0
  4  5  1  0  0  0
  5  6  2  0  0  0
  5 11  1  0  0  0
  6  7  1  0  0  0
  6  9  1  0  0  0
  7  8  1  0  0  0
  9 10  2  0  0  0
 11 12  2  0  0  0
 11 13  2  0  0  0
 11 14  1  0  0  0
 14 15  1  0  0  0
 14 33  1  0  0  0
 15 16  1  0  0  0
 16 17  1  0  0  0
 16 23  1  0  0  0
 17 18  1  0  0  0
 17 22  1  0  0  0
 18 19  1  0  0  0
 19 20  1  0  0  0
 20 21  1  0  0  0
 21 22  1  0  0  0
 23 24  2  0  0  0
 23 32  1  0  0  0
 24 25  1  0  0  0
 24 29  1  0  0  0
 25 26  2  0  0  0
 26 27  1  0  0  0
 27 28  2  0  0  0
 28 29  1  0  0  0
 29 30  2  0  0  0
 30 31  1  0  0  0
 31 32  2  0  0  0
M  END
>  <CHROM.0>
-65.70589461,-74.54192180,-43.80481531,151.74334734,-30.79001669,-173.99358082
82.74802551,-165.59952551

>  <CHROM.1>
-153.62813839,61.15670999,63.28242566,-47.46547007,163.34333710,159.40798185
120.16212382,156.85043781,-22.08033779,20.71744239,-12.87421071,1.15766658
-0.71479499,-2.69521459

>  <Name>
F2880-4230

>  <RI>
3.85826e+07

>  <Rbt.Current_Directory>
/home/adria/Escritorio/rDock_CMTR_LC/2pxcA_model/inputs_sah

>  <Rbt.Executable>
rbdock ($Id: //depot/dev/client3/rdock/2013.1/src/exe/rbdock.cxx#4 $)

>  <Rbt.Library>
libRbt.so (2013.1, Build901 2013/11/27)

>  <Rbt.Parameter_File>
/home/adria/Escritorio/rDock_2013.1_src/data/scripts/dock.prm

>  <Rbt.Receptor>
sah_rdock.prm

>  <SCORE>
-202.721

>  <SCORE.INTER>
-17.897

>  <SCORE.INTER.CONST>
1

>  <SCORE.INTER.POLAR>
-2.0176

>  <SCORE.INTER.REPUL>
0.0155478

>  <SCORE.INTER.ROT>
8

>  <SCORE.INTER.VDW>
-24.5149

>  <SCORE.INTER.norm>
-0.559281

>  <SCORE.INTRA>
-180.767

>  <SCORE.INTRA.DIHEDRAL>
1.73467

>  <SCORE.INTRA.DIHEDRAL.0>
9.64994

>  <SCORE.INTRA.POLAR>
0

>  <SCORE.INTRA.POLAR.0>
0

>  <SCORE.INTRA.REPUL>
0

>  <SCORE.INTRA.REPUL.0>
0

>  <SCORE.INTRA.VDW>
-181.634

>  <SCORE.INTRA.VDW.0>
178.431

>  <SCORE.INTRA.norm>
-5.64897

>  <SCORE.RESTR>
0

>  <SCORE.RESTR.CAVITY>
0

>  <SCORE.RESTR.norm>
0

>  <SCORE.SYSTEM>
-4.05672

>  <SCORE.SYSTEM.CONST>
0

>  <SCORE.SYSTEM.DIHEDRAL>
10.0041

>  <SCORE.SYSTEM.POLAR>
-4.00104

>  <SCORE.SYSTEM.REPUL>
0.041172

>  <SCORE.SYSTEM.VDW>
4.33894

>  <SCORE.SYSTEM.norm>
-0.126772

>  <SCORE.heavy>
32

>  <SCORE.norm>
-6.33502

$$$$
F2880-4230
  rDOCK(R)          3D
libRbt.so/2013.1/901 2013/11/27
 33 36  0  0  0  0  0  0  0  0999 V2000
  -24.3345   20.3098   -8.7121 C   0  0  0  0  0  0
  -23.4097   21.9158   -9.0778 O   0  0  0  0  0  0
  -23.1621   23.3497   -9.0588 C   0  0  0  0  0  0
  -23.4667   23.9737  -10.2540 C   0  0  0  0  0  0
  -22.6850   24.9806  -10.7398 C   0  0  0  0  0  0
  -21.8198   25.6039   -9.8370 C   0  0  0  0  0  0
  -20.8704   26.5570  -10.0022 O   0  0  0  0  0  0
  -19.6027   26.1159  -10.4104 C   0  0  0  0  0  0
  -21.8300   25.2092   -8.4890 C   0  0  0  0  0  0
  -22.5161   24.0919   -8.0859 C   0  0  0  0  0  0
  -22.7287   25.0891  -12.5159 S   0  0  0  0  0  0
  -24.0650   25.0765  -12.9390 O   0  0  0  0  0  0
  -21.7837   26.1667  -12.9101 O   0  0  0  0  0  0
  -22.0752   23.6427  -13.1492 N   0  0  0  0  0  0
  -21.0577   22.8109  -12.4397 C   0  0  0  0  0  0
  -21.3167   21.1953  -12.4139 C   0  0  0  0  0  0
  -22.5394   20.5070  -11.7528 N   0  0  0  0  0  0
  -24.1275   20.8832  -12.5299 C   0  0  0  0  0  0
  -25.5721   19.5741  -12.6373 C   0  0  0  0  0  0
  -25.2388   17.8096  -12.1129 O   0  0  0  0  0  0
  -23.4800   17.2899  -11.6488 C   0  0  0  0  0  0
  -22.1832   18.7622  -11.4430 C   0  0  0  0  0  0
  -20.4672   20.3899  -13.5319 C   0  0  0  0  0  0
  -20.8764   19.5540  -14.7464 C   0  0  0  0  0  0
  -22.1148   19.3410  -15.5267 C   0  0  0  0  0  0
  -22.3596   18.3431  -16.4899 C   0  0  0  0  0  0
  -21.3000   17.6261  -16.9644 C   0  0  0  0  0  0
  -20.0558   17.8634  -16.3974 C   0  0  0  0  0  0
  -19.8452   18.7522  -15.3108 C   0  0  0  0  0  0
  -18.5349   18.8000  -14.8277 C   0  0  0  0  0  0
  -18.1424   19.6567  -13.8160 C   0  0  0  0  0  0
  -19.0848   20.4476  -13.1920 C   0  0  0  0  0  0
  -21.8508   23.8305  -14.1320 H   0  0  0  0  0  0
  1  2  1  0  0  0
  2  3  1  0  0  0
  3  4  2  0  0  0
  3 10  1  0  0  0
  4  5  1  0  0  0
  5  6  2  0  0  0
  5 11  1  0  0  0
  6  7  1  0  0  0
  6  9  1  0  0  0
  7  8  1  0  0  0
  9 10  2  0  0  0
 11 12  2  0  0  0
 11 13  2  0  0  0
 11 14  1  0  0  0
 14 15  1  0  0  0
 14 33  1  0  0  0
 15 16  1  0  0  0
 16 17  1  0  0  0
 16 23  1  0  0  0
 17 18  1  0  0  0
 17 22  1  0  0  0
 18 19  1  0  0  0
 19 20  1  0  0  0
 20 21  1  0  0  0
 21 22  1  0  0  0
 23 24  2  0  0  0
 23 32  1  0  0  0
 24 25  1  0  0  0
 24 29  1  0  0  0
 25 26  2  0  0  0
 26 27  1  0  0  0
 27 28  2  0  0  0
 28 29  1  0  0  0
 29 30  2  0  0  0
 30 31  1  0  0  0
 31 32  2  0  0  0
M  END
>  <CHROM.0>
-176.84155669,-167.34479260,-128.69920585,62.54033983,168.25883164,59.22943974
83.88929107,-167.75741612

>  <CHROM.1>
-102.65008697,49.15453255,-84.13804467,-28.26547333,134.38648940,-62.10602394
65.42278656,-116.38192261,-22.04868104,21.81700572,-12.27025221,1.72243490
0.75711089,0.48066921

>  <Name>
F2880-4230

>  <RI>
3.85826e+07

>  <Rbt.Current_Directory>
/home/adria/Escritorio/rDock_CMTR_LC/2pxcA_model/inputs_sah

>  <Rbt.Executable>
rbdock ($Id: //depot/dev/client3/rdock/2013.1/src/exe/rbdock.cxx#4 $)

>  <Rbt.Library>
libRbt.so (2013.1, Build901 2013/11/27)

>  <Rbt.Parameter_File>
/home/adria/Escritorio/rDock_2013.1_src/data/scripts/dock.prm

>  <Rbt.Receptor>
sah_rdock.prm

>  <SCORE>
-194.91

>  <SCORE.INTER>
-14.9832

>  <SCORE.INTER.CONST>
1

>  <SCORE.INTER.POLAR>
-2.05335

>  <SCORE.INTER.REPUL>
0.476562

>  <SCORE.INTER.ROT>
8

>  <SCORE.INTER.VDW>
-23.7846

>  <SCORE.INTER.norm>
-0.468224

>  <SCORE.INTRA>
-179.392

>  <SCORE.INTRA.DIHEDRAL>
8.12874

>  <SCORE.INTRA.DIHEDRAL.0>
9.64994

>  <SCORE.INTRA.POLAR>
0

>  <SCORE.INTRA.POLAR.0>
0

>  <SCORE.INTRA.REPUL>
0.108097

>  <SCORE.INTRA.REPUL.0>
0

>  <SCORE.INTRA.VDW>
-183.997

>  <SCORE.INTRA.VDW.0>
178.431

>  <SCORE.INTRA.norm>
-5.60601

>  <SCORE.RESTR>
0

>  <SCORE.RESTR.CAVITY>
0

>  <SCORE.RESTR.norm>
0

>  <SCORE.SYSTEM>
-0.534979

>  <SCORE.SYSTEM.CONST>
0

>  <SCORE.SYSTEM.DIHEDRAL>
6.36941

>  <SCORE.SYSTEM.POLAR>
-4.08093

>  <SCORE.SYSTEM.VDW>
10.1555

>  <SCORE.SYSTEM.norm>
-0.0167181

>  <SCORE.heavy>
32

>  <SCORE.norm>
-6.09095

$$$$
F2880-4230
  rDOCK(R)          3D
libRbt.so/2013.1/901 2013/11/27
 33 36  0  0  0  0  0  0  0  0999 V2000
  -14.4278   19.4055  -16.8684 C   0  0  0  0  0  0
  -16.2315   19.7740  -17.2916 O   0  0  0  0  0  0
  -17.6322   20.0693  -17.0304 C   0  0  0  0  0  0
  -17.9404   20.1139  -15.6836 C   0  0  0  0  0  0
  -19.1207   19.6146  -15.2163 C   0  0  0  0  0  0
  -20.1401   19.4162  -16.1510 C   0  0  0  0  0  0
  -21.3760   18.8705  -16.0423 O   0  0  0  0  0  0
  -21.4514   17.6005  -15.4512 C   0  0  0  0  0  0
  -19.9259   19.7792  -17.4910 C   0  0  0  0  0  0
  -18.6762   20.1271  -17.9368 C   0  0  0  0  0  0
  -19.0073   19.0417  -13.5350 S   0  0  0  0  0  0
  -18.8514   17.6486  -13.5392 O   0  0  0  0  0  0
  -18.0573   19.9423  -12.8307 O   0  0  0  0  0  0
  -20.5245   19.2910  -12.7890 N   0  0  0  0  0  0
  -20.7780   20.3353  -11.7519 C   0  0  0  0  0  0
  -22.3087   20.9030  -11.6384 C   0  0  0  0  0  0
  -23.4475   20.2191  -10.8376 N   0  0  0  0  0  0
  -23.8133   20.9864   -9.2424 C   0  0  0  0  0  0
  -25.6219   21.0588   -8.5102 C   0  0  0  0  0  0
  -27.0562   20.5097   -9.5784 O   0  0  0  0  0  0
  -26.7511   20.0546  -11.3892 C   0  0  0  0  0  0
  -24.8580   19.8850  -11.9175 C   0  0  0  0  0  0
  -22.4429   22.4708  -12.0181 C   0  0  0  0  0  0
  -21.6921   23.7210  -11.5547 C   0  0  0  0  0  0
  -20.4437   24.0022  -10.8133 C   0  0  0  0  0  0
  -20.0256   25.2350  -10.2757 C   0  0  0  0  0  0
  -20.6848   26.3665  -10.6592 C   0  0  0  0  0  0
  -21.7893   26.2196  -11.4865 C   0  0  0  0  0  0
  -22.3056   24.9604  -11.8900 C   0  0  0  0  0  0
  -23.4698   25.0150  -12.6609 C   0  0  0  0  0  0
  -24.0696   23.8869  -13.1891 C   0  0  0  0  0  0
  -23.5578   22.6416  -12.8884 C   0  0  0  0  0  0
  -20.8850   18.3625  -12.5451 H   0  0  0  0  0  0
  1  2  1  0  0  0
  2  3  1  0  0  0
  3  4  2  0  0  0
  3 10  1  0  0  0
  4  5  1  0  0  0
  5  6  2  0  0  0
  5 11  1  0  0  0
  6  7  1  0  0  0
  6  9  1  0  0  0
  7  8  1  0  0  0
  9 10  2  0  0  0
 11 12  2  0  0  0
 11 13  2  0  0  0
 11 14  1  0  0  0
 14 15  1  0  0  0
 14 33  1  0  0  0
 15 16  1  0  0  0
 16 17  1  0  0  0
 16 23  1  0  0  0
 17 18  1  0  0  0
 17 22  1  0  0  0
 18 19  1  0  0  0
 19 20  1  0  0  0
 20 21  1  0  0  0
 21 22  1  0  0  0
 23 24  2  0  0  0
 23 32  1  0  0  0
 24 25  1  0  0  0
 24 29  1  0  0  0
 25 26  2  0  0  0
 26 27  1  0  0  0
 27 28  2  0  0  0
 28 29  1  0  0  0
 29 30  2  0  0  0
 30 31  1  0  0  0
 31 32  2  0  0  0
M  END
>  <CHROM.0>
39.78002564,65.85633491,84.83371437,-61.52778500,-29.82512498,63.39810811
81.99732594,-41.93849145

>  <CHROM.1>
-1.77493832,-99.32254766,-51.57410807,-108.31588408,152.96193861,83.65239252
102.38790071,-50.91037454,-21.09926552,21.02017407,-13.15075137,-0.61563110
0.53975462,0.41120337

>  <Name>
F2880-4230

>  <RI>
3.85826e+07

>  <Rbt.Current_Directory>
/home/adria/Escritorio/rDock_CMTR_LC/2pxcA_model/inputs_sah

>  <Rbt.Executable>
rbdock ($Id: //depot/dev/client3/rdock/2013.1/src/exe/rbdock.cxx#4 $)

>  <Rbt.Library>
libRbt.so (2013.1, Build901 2013/11/27)

>  <Rbt.Parameter_File>
/home/adria/Escritorio/rDock_2013.1_src/data/scripts/dock.prm

>  <Rbt.Receptor>
sah_rdock.prm

>  <SCORE>
-199.952

>  <SCORE.INTER>
-18.703

>  <SCORE.INTER.CONST>
1

>  <SCORE.INTER.POLAR>
-1.51949

>  <SCORE.INTER.REPUL>
0

>  <SCORE.INTER.ROT>
8

>  <SCORE.INTER.VDW>
-26.9368

>  <SCORE.INTER.norm>
-0.58447

>  <SCORE.INTRA>
-180.949

>  <SCORE.INTRA.DIHEDRAL>
1.74921

>  <SCORE.INTRA.DIHEDRAL.0>
9.64994

>  <SCORE.INTRA.POLAR>
0

>  <SCORE.INTRA.POLAR.0>
0

>  <SCORE.INTRA.REPUL>
0

>  <SCORE.INTRA.REPUL.0>
0

>  <SCORE.INTRA.VDW>
-181.823

>  <SCORE.INTRA.VDW.0>
178.431

>  <SCORE.INTRA.norm>
-5.65465

>  <SCORE.RESTR>
0

>  <SCORE.RESTR.CAVITY>
0

>  <SCORE.RESTR.norm>
0

>  <SCORE.SYSTEM>
-0.3005

>  <SCORE.SYSTEM.CONST>
0

>  <SCORE.SYSTEM.DIHEDRAL>
10.2055

>  <SCORE.SYSTEM.POLAR>
-3.31169

>  <SCORE.SYSTEM.REPUL>
0.156185

>  <SCORE.SYSTEM.VDW>
5.07556

>  <SCORE.SYSTEM.norm>
-0.00939061

>  <SCORE.heavy>
32

>  <SCORE.norm>
-6.24851

$$$$
F2880-4230
  rDOCK(R)          3D
libRbt.so/2013.1/901 2013/11/27
 33 36  0  0  0  0  0  0  0  0999 V2000
  -19.1963   11.8861  -16.7540 C   0  0  0  0  0  0
  -18.7674   13.6509  -16.2347 O   0  0  0  0  0  0
  -17.9385   14.8386  -16.0938 C   0  0  0  0  0  0
  -18.4266   15.7401  -15.1666 C   0  0  0  0  0  0
  -18.3511   17.0842  -15.3868 C   0  0  0  0  0  0
  -17.4493   17.5178  -16.3618 C   0  0  0  0  0  0
  -17.1915   18.7448  -16.8767 O   0  0  0  0  0  0
  -16.5942   19.6750  -16.0129 C   0  0  0  0  0  0
  -16.6424   16.5757  -17.0211 C   0  0  0  0  0  0
  -16.8673   15.2302  -16.8775 C   0  0  0  0  0  0
  -19.6506   17.9883  -14.5729 S   0  0  0  0  0  0
  -20.8591   17.7469  -15.2409 O   0  0  0  0  0  0
  -19.4934   17.7581  -13.1128 O   0  0  0  0  0  0
  -19.3645   19.6557  -14.8144 N   0  0  0  0  0  0
  -19.4769   20.6820  -13.7352 C   0  0  0  0  0  0
  -20.9519   20.8737  -13.0530 C   0  0  0  0  0  0
  -21.9022   19.7118  -12.6621 N   0  0  0  0  0  0
  -22.2727   19.6025  -10.8963 C   0  0  0  0  0  0
  -24.0108   19.0136  -10.2298 C   0  0  0  0  0  0
  -25.4090   18.7554  -11.4455 O   0  0  0  0  0  0
  -25.1652   19.2240  -13.2621 C   0  0  0  0  0  0
  -23.3131   19.6513  -13.7903 C   0  0  0  0  0  0
  -21.1616   22.3272  -12.3721 C   0  0  0  0  0  0
  -22.1920   23.4377  -12.5877 C   0  0  0  0  0  0
  -23.4981   23.5634  -13.2702 C   0  0  0  0  0  0
  -24.2034   24.7477  -13.5591 C   0  0  0  0  0  0
  -23.8033   25.9042  -12.9556 C   0  0  0  0  0  0
  -22.6645   25.8573  -12.1640 C   0  0  0  0  0  0
  -21.8625   24.6961  -12.0108 C   0  0  0  0  0  0
  -20.7133   24.8660  -11.2343 C   0  0  0  0  0  0
  -19.8550   23.8249  -10.9325 C   0  0  0  0  0  0
  -20.0828   22.5775  -11.4758 C   0  0  0  0  0  0
  -19.8425   19.9099  -15.6852 H   0  0  0  0  0  0
  1  2  1  0  0  0
  2  3  1  0  0  0
  3  4  2  0  0  0
  3 10  1  0  0  0
  4  5  1  0  0  0
  5  6  2  0  0  0
  5 11  1  0  0  0
  6  7  1  0  0  0
  6  9  1  0  0  0
  7  8  1  0  0  0
  9 10  2  0  0  0
 11 12  2  0  0  0
 11 13  2  0  0  0
 11 14  1  0  0  0
 14 15  1  0  0  0
 14 33  1  0  0  0
 15 16  1  0  0  0
 16 17  1  0  0  0
 16 23  1  0  0  0
 17 18  1  0  0  0
 17 22  1  0  0  0
 18 19  1  0  0  0
 19 20  1  0  0  0
 20 21  1  0  0  0
 21 22  1  0  0  0
 23 24  2  0  0  0
 23 32  1  0  0  0
 24 25  1  0  0  0
 24 29  1  0  0  0
 25 26  2  0  0  0
 26 27  1  0  0  0
 27 28  2  0  0  0
 28 29  1  0  0  0
 29 30  2  0  0  0
 30 31  1  0  0  0
 31 32  2  0  0  0
M  END
>  <CHROM.0>
-60.59497398,-71.97493152,73.73887839,-60.91808238,-30.76208730,-177.38304957
82.30123912,-163.65276988

>  <CHROM.1>
-164.41665602,-72.27525719,68.06728230,-135.36920543,-62.28367273,42.34740531
117.71252783,122.65177802,-20.56542367,19.59837736,-13.88045835,1.03282732
-0.46522263,-2.93200159

>  <Name>
F2880-4230

>  <RI>
3.85826e+07

>  <Rbt.Current_Directory>
/home/adria/Escritorio/rDock_CMTR_LC/2pxcA_model/inputs_sah

>  <Rbt.Executable>
rbdock ($Id: //depot/dev/client3/rdock/2013.1/src/exe/rbdock.cxx#4 $)

>  <Rbt.Library>
libRbt.so (2013.1, Build901 2013/11/27)

>  <Rbt.Parameter_File>
/home/adria/Escritorio/rDock_2013.1_src/data/scripts/dock.prm

>  <Rbt.Receptor>
sah_rdock.prm

>  <SCORE>
-202.148

>  <SCORE.INTER>
-13.3107

>  <SCORE.INTER.CONST>
1

>  <SCORE.INTER.POLAR>
-0.824621

>  <SCORE.INTER.REPUL>
0.0195056

>  <SCORE.INTER.ROT>
8

>  <SCORE.INTER.VDW>
-24.0045

>  <SCORE.INTER.norm>
-0.415958

>  <SCORE.INTRA>
-181.318

>  <SCORE.INTRA.DIHEDRAL>
2.39241

>  <SCORE.INTRA.DIHEDRAL.0>
9.64994

>  <SCORE.INTRA.POLAR>
0

>  <SCORE.INTRA.POLAR.0>
0

>  <SCORE.INTRA.REPUL>
0

>  <SCORE.INTRA.REPUL.0>
0

>  <SCORE.INTRA.VDW>
-182.514

>  <SCORE.INTRA.VDW.0>
178.431

>  <SCORE.INTRA.norm>
-5.66619

>  <SCORE.RESTR>
0

>  <SCORE.RESTR.CAVITY>
0

>  <SCORE.RESTR.norm>
0

>  <SCORE.SYSTEM>
-7.51906

>  <SCORE.SYSTEM.CONST>
0

>  <SCORE.SYSTEM.DIHEDRAL>
6.08424

>  <SCORE.SYSTEM.POLAR>
-4.01878

>  <SCORE.SYSTEM.REPUL>
0.0366538

>  <SCORE.SYSTEM.VDW>
2.91939

>  <SCORE.SYSTEM.norm>
-0.23497

>  <SCORE.heavy>
32

>  <SCORE.norm>
-6.31712

$$$$
F2880-4230
  rDOCK(R)          3D
libRbt.so/2013.1/901 2013/11/27
 33 36  0  0  0  0  0  0  0  0999 V2000
  -23.1785   17.0462  -12.6212 C   0  0  0  0  0  0
  -21.5714   16.7608  -13.5722 O   0  0  0  0  0  0
  -20.2446   17.0764  -14.0797 C   0  0  0  0  0  0
  -19.7125   18.2322  -13.5397 C   0  0  0  0  0  0
  -18.9834   19.0942  -14.3054 C   0  0  0  0  0  0
  -18.4794   18.6006  -15.5114 C   0  0  0  0  0  0
  -17.8037   19.1975  -16.5234 O   0  0  0  0  0  0
  -18.5683   19.9367  -17.4383 C   0  0  0  0  0  0
  -18.6979   17.2549  -15.8497 C   0  0  0  0  0  0
  -19.5659   16.4773  -15.1262 C   0  0  0  0  0  0
  -19.0789   20.7754  -13.7286 S   0  0  0  0  0  0
  -18.6381   20.8252  -12.3989 O   0  0  0  0  0  0
  -18.4914   21.6344  -14.7900 O   0  0  0  0  0  0
  -20.7293   21.2097  -13.6392 N   0  0  0  0  0  0
  -21.6571   20.7307  -12.5713 C   0  0  0  0  0  0
  -23.1102   21.4766  -12.4704 C   0  0  0  0  0  0
  -24.3894   21.0246  -13.2222 N   0  0  0  0  0  0
  -25.3478   22.3701  -13.9557 C   0  0  0  0  0  0
  -26.3156   22.1642  -15.6389 C   0  0  0  0  0  0
  -26.0780   20.5999  -16.6370 O   0  0  0  0  0  0
  -24.7899   19.3281  -16.0869 C   0  0  0  0  0  0
  -24.0204   19.6162  -14.2934 C   0  0  0  0  0  0
  -23.2547   22.4300  -11.1702 C   0  0  0  0  0  0
  -22.6662   23.7962  -10.8119 C   0  0  0  0  0  0
  -21.9714   24.8820  -11.5370 C   0  0  0  0  0  0
  -21.2914   25.9840  -10.9830 C   0  0  0  0  0  0
  -21.4690   26.2559   -9.6577 C   0  0  0  0  0  0
  -22.2386   25.3709   -8.9159 C   0  0  0  0  0  0
  -22.7837   24.1714   -9.4443 C   0  0  0  0  0  0
  -23.4654   23.3722   -8.5228 C   0  0  0  0  0  0
  -24.1099   22.2027   -8.8812 C   0  0  0  0  0  0
  -24.0211   21.7491  -10.1809 C   0  0  0  0  0  0
  -21.1048   21.1236  -14.5895 H   0  0  0  0  0  0
  1  2  1  0  0  0
  2  3  1  0  0  0
  3  4  2  0  0  0
  3 10  1  0  0  0
  4  5  1  0  0  0
  5  6  2  0  0  0
  5 11  1  0  0  0
  6  7  1  0  0  0
  6  9  1  0  0  0
  7  8  1  0  0  0
  9 10  2  0  0  0
 11 12  2  0  0  0
 11 13  2  0  0  0
 11 14  1  0  0  0
 14 15  1  0  0  0
 14 33  1  0  0  0
 15 16  1  0  0  0
 16 17  1  0  0  0
 16 23  1  0  0  0
 17 18  1  0  0  0
 17 22  1  0  0  0
 18 19  1  0  0  0
 19 20  1  0  0  0
 20 21  1  0  0  0
 21 22  1  0  0  0
 23 24  2  0  0  0
 23 32  1  0  0  0
 24 25  1  0  0  0
 24 29  1  0  0  0
 25 26  2  0  0  0
 26 27  1  0  0  0
 27 28  2  0  0  0
 28 29  1  0  0  0
 29 30  2  0  0  0
 30 31  1  0  0  0
 31 32  2  0  0  0
M  END
>  <CHROM.0>
177.94252166,-74.72261002,-44.56277204,148.41459446,167.76072402,179.53728705
-37.81686950,-164.69463099

>  <CHROM.1>
8.30672011,57.63199899,-79.68619332,74.63364867,168.14706197,90.25148351
-137.13725606,73.59947476,-21.65185563,20.92019932,-13.19453042,1.12740033
0.03844536,-2.40226864

>  <Name>
F2880-4230

>  <RI>
3.85826e+07

>  <Rbt.Current_Directory>
/home/adria/Escritorio/rDock_CMTR_LC/2pxcA_model/inputs_sah

>  <Rbt.Executable>
rbdock ($Id: //depot/dev/client3/rdock/2013.1/src/exe/rbdock.cxx#4 $)

>  <Rbt.Library>
libRbt.so (2013.1, Build901 2013/11/27)

>  <Rbt.Parameter_File>
/home/adria/Escritorio/rDock_2013.1_src/data/scripts/dock.prm

>  <Rbt.Receptor>
sah_rdock.prm

>  <SCORE>
-192.152

>  <SCORE.INTER>
-12.329

>  <SCORE.INTER.CONST>
1

>  <SCORE.INTER.POLAR>
0

>  <SCORE.INTER.REPUL>
0

>  <SCORE.INTER.ROT>
8

>  <SCORE.INTER.VDW>
-25.729

>  <SCORE.INTER.norm>
-0.385281

>  <SCORE.INTRA>
-180.88

>  <SCORE.INTRA.DIHEDRAL>
1.21631

>  <SCORE.INTRA.DIHEDRAL.0>
9.64994

>  <SCORE.INTRA.POLAR>
0

>  <SCORE.INTRA.POLAR.0>
0

>  <SCORE.INTRA.REPUL>
0

>  <SCORE.INTRA.REPUL.0>
0

>  <SCORE.INTRA.VDW>
-181.488

>  <SCORE.INTRA.VDW.0>
178.431

>  <SCORE.INTRA.norm>
-5.6525

>  <SCORE.RESTR>
0

>  <SCORE.RESTR.CAVITY>
0

>  <SCORE.RESTR.norm>
0

>  <SCORE.SYSTEM>
1.05754

>  <SCORE.SYSTEM.CONST>
0

>  <SCORE.SYSTEM.DIHEDRAL>
7.62677

>  <SCORE.SYSTEM.POLAR>
-3.90092

>  <SCORE.SYSTEM.REPUL>
0.0414656

>  <SCORE.SYSTEM.VDW>
10.3

>  <SCORE.SYSTEM.norm>
0.0330481

>  <SCORE.heavy>
32

>  <SCORE.norm>
-6.00474

$$$$
F2880-4230
  rDOCK(R)          3D
libRbt.so/2013.1/901 2013/11/27
 33 36  0  0  0  0  0  0  0  0999 V2000
  -26.6063   20.7312   -9.3775 C   0  0  0  0  0  0
  -25.5733   22.2272   -8.8646 O   0  0  0  0  0  0
  -24.6250   23.3179   -9.0335 C   0  0  0  0  0  0
  -24.6715   23.8944  -10.2889 C   0  0  0  0  0  0
  -23.5310   24.2977  -10.9192 C   0  0  0  0  0  0
  -22.3922   24.4619  -10.1266 C   0  0  0  0  0  0
  -21.1075   24.7624  -10.4368 O   0  0  0  0  0  0
  -20.7926   26.1244  -10.5552 C   0  0  0  0  0  0
  -22.4832   24.2580   -8.7398 C   0  0  0  0  0  0
  -23.6061   23.7034   -8.1802 C   0  0  0  0  0  0
  -23.6708   24.2466  -12.6929 S   0  0  0  0  0  0
  -25.0199   24.3867  -13.0465 O   0  0  0  0  0  0
  -22.6126   25.1361  -13.2395 O   0  0  0  0  0  0
  -23.2644   22.6689  -13.2090 N   0  0  0  0  0  0
  -21.9632   22.0039  -12.9007 C   0  0  0  0  0  0
  -21.7765   20.4688  -13.4359 C   0  0  0  0  0  0
  -22.8929   19.3920  -13.4378 N   0  0  0  0  0  0
  -24.3047   19.7680  -12.3735 C   0  0  0  0  0  0
  -26.1285   19.2485  -12.8380 C   0  0  0  0  0  0
  -26.4635   18.5274  -14.5314 O   0  0  0  0  0  0
  -25.0727   18.4680  -15.8126 C   0  0  0  0  0  0
  -23.2687   18.8836  -15.1312 C   0  0  0  0  0  0
  -20.4939   20.2770  -14.4046 C   0  0  0  0  0  0
  -19.7520   19.0399  -14.9152 C   0  0  0  0  0  0
  -20.0095   17.5842  -14.9594 C   0  0  0  0  0  0
  -19.0927   16.5610  -15.2696 C   0  0  0  0  0  0
  -17.8979   16.9088  -15.8294 C   0  0  0  0  0  0
  -17.6231   18.2614  -15.9728 C   0  0  0  0  0  0
  -18.4815   19.2906  -15.5049 C   0  0  0  0  0  0
  -17.9969   20.5905  -15.6726 C   0  0  0  0  0  0
  -18.7306   21.7112  -15.3301 C   0  0  0  0  0  0
  -19.9605   21.5588  -14.7242 C   0  0  0  0  0  0
  -23.5453   22.6031  -14.1931 H   0  0  0  0  0  0
  1  2  1  0  0  0
  2  3  1  0  0  0
  3  4  2  0  0  0
  3 10  1  0  0  0
  4  5  1  0  0  0
  5  6  2  0  0  0
  5 11  1  0  0  0
  6  7  1  0  0  0
  6  9  1  0  0  0
  7  8  1  0  0  0
  9 10  2  0  0  0
 11 12  2  0  0  0
 11 13  2  0  0  0
 11 14  1  0  0  0
 14 15  1  0  0  0
 14 33  1  0  0  0
 15 16  1  0  0  0
 16 17  1  0  0  0
 16 23  1  0  0  0
 17 18  1  0  0  0
 17 22  1  0  0  0
 18 19  1  0  0  0
 19 20  1  0  0  0
 20 21  1  0  0  0
 21 22  1  0  0  0
 23 24  2  0  0  0
 23 32  1  0  0  0
 24 25  1  0  0  0
 24 29  1  0  0  0
 25 26  2  0  0  0
 26 27  1  0  0  0
 27 28  2  0  0  0
 28 29  1  0  0  0
 29 30  2  0  0  0
 30 31  1  0  0  0
 31 32  2  0  0  0
M  END
>  <CHROM.0>
-178.21750721,-72.19052844,-44.70687451,61.44686050,-32.64817071,-177.08519555
-156.05243670,-172.48926381

>  <CHROM.1>
34.68949310,26.07201953,85.68896866,-56.79301295,177.89035796,-38.54026346
-17.02318516,165.88220456,-22.41713805,21.50791827,-12.82727760,2.13654221
0.32987484,0.56594050

>  <Name>
F2880-4230

>  <RI>
3.85826e+07

>  <Rbt.Current_Directory>
/home/adria/Escritorio/rDock_CMTR_LC/2pxcA_model/inputs_sah

>  <Rbt.Executable>
rbdock ($Id: //depot/dev/client3/rdock/2013.1/src/exe/rbdock.cxx#4 $)

>  <Rbt.Library>
libRbt.so (2013.1, Build901 2013/11/27)

>  <Rbt.Parameter_File>
/home/adria/Escritorio/rDock_2013.1_src/data/scripts/dock.prm

>  <Rbt.Receptor>
sah_rdock.prm

>  <SCORE>
-197.733

>  <SCORE.INTER>
-12.2127

>  <SCORE.INTER.CONST>
1

>  <SCORE.INTER.POLAR>
-1.4772

>  <SCORE.INTER.REPUL>
0.0644787

>  <SCORE.INTER.ROT>
8

>  <SCORE.INTER.VDW>
-20.9126

>  <SCORE.INTER.norm>
-0.381648

>  <SCORE.INTRA>
-178.342

>  <SCORE.INTRA.DIHEDRAL>
2.66299

>  <SCORE.INTRA.DIHEDRAL.0>
9.64994

>  <SCORE.INTRA.POLAR>
0

>  <SCORE.INTRA.POLAR.0>
0

>  <SCORE.INTRA.REPUL>
0

>  <SCORE.INTRA.REPUL.0>
0

>  <SCORE.INTRA.VDW>
-179.673

>  <SCORE.INTRA.VDW.0>
178.431

>  <SCORE.INTRA.norm>
-5.57318

>  <SCORE.RESTR>
0

>  <SCORE.RESTR.CAVITY>
0

>  <SCORE.RESTR.norm>
0

>  <SCORE.SYSTEM>
-7.17845

>  <SCORE.SYSTEM.CONST>
0

>  <SCORE.SYSTEM.DIHEDRAL>
5.72588

>  <SCORE.SYSTEM.POLAR>
-3.96403

>  <SCORE.SYSTEM.REPUL>
0.037058

>  <SCORE.SYSTEM.VDW>
3.25102

>  <SCORE.SYSTEM.norm>
-0.224327

>  <SCORE.heavy>
32

>  <SCORE.norm>
-6.17916

$$$$
F2880-4230
  rDOCK(R)          3D
libRbt.so/2013.1/901 2013/11/27
 33 36  0  0  0  0  0  0  0  0999 V2000
  -22.6890   17.8199  -17.1552 C   0  0  0  0  0  0
  -20.8049   17.6930  -17.2028 O   0  0  0  0  0  0
  -19.4333   18.0315  -16.8541 C   0  0  0  0  0  0
  -19.3347   18.8223  -15.7247 C   0  0  0  0  0  0
  -18.4150   19.8269  -15.6488 C   0  0  0  0  0  0
  -17.3537   19.7853  -16.5566 C   0  0  0  0  0  0
  -16.3384   20.6483  -16.8041 O   0  0  0  0  0  0
  -15.0656   20.2651  -16.3555 C   0  0  0  0  0  0
  -17.2559   18.7081  -17.4527 C   0  0  0  0  0  0
  -18.2850   17.8123  -17.5946 C   0  0  0  0  0  0
  -18.9328   21.1539  -14.5815 S   0  0  0  0  0  0
  -18.5241   20.8688  -13.2713 O   0  0  0  0  0  0
  -18.5760   22.4259  -15.2629 O   0  0  0  0  0  0
  -20.6397   21.1316  -14.5019 N   0  0  0  0  0  0
  -21.4089   20.7988  -13.2657 C   0  0  0  0  0  0
  -21.5123   21.9688  -12.1263 C   0  0  0  0  0  0
  -21.0885   23.4461  -12.3359 N   0  0  0  0  0  0
  -22.4607   24.5957  -12.5858 C   0  0  0  0  0  0
  -22.4147   26.4335  -11.9280 C   0  0  0  0  0  0
  -21.0032   26.9664  -10.8219 O   0  0  0  0  0  0
  -19.7451   25.6835  -10.2301 C   0  0  0  0  0  0
  -19.8479   23.9208  -11.1100 C   0  0  0  0  0  0
  -22.5266   21.6029  -10.9190 C   0  0  0  0  0  0
  -23.7150   22.3412  -10.2993 C   0  0  0  0  0  0
  -24.5585   23.5003  -10.6636 C   0  0  0  0  0  0
  -25.4768   24.1833   -9.8427 C   0  0  0  0  0  0
  -25.8417   23.6084   -8.6602 C   0  0  0  0  0  0
  -25.2118   22.4264   -8.2970 C   0  0  0  0  0  0
  -24.1665   21.8306   -9.0502 C   0  0  0  0  0  0
  -23.6051   20.6834   -8.4834 C   0  0  0  0  0  0
  -22.6211   19.9439   -9.1130 C   0  0  0  0  0  0
  -22.1040   20.3845  -10.3137 C   0  0  0  0  0  0
  -20.9639   20.6404  -15.3416 H   0  0  0  0  0  0
  1  2  1  0  0  0
  2  3  1  0  0  0
  3  4  2  0  0  0
  3 10  1  0  0  0
  4  5  1  0  0  0
  5  6  2  0  0  0
  5 11  1  0  0  0
  6  7  1  0  0  0
  6  9  1  0  0  0
  7  8  1  0  0  0
  9 10  2  0  0  0
 11 12  2  0  0  0
 11 13  2  0  0  0
 11 14  1  0  0  0
 14 15  1  0  0  0
 14 33  1  0  0  0
 15 16  1  0  0  0
 16 17  1  0  0  0
 16 23  1  0  0  0
 17 18  1  0  0  0
 17 22  1  0  0  0
 18 19  1  0  0  0
 19 20  1  0  0  0
 20 21  1  0  0  0
 21 22  1  0  0  0
 23 24  2  0  0  0
 23 32  1  0  0  0
 24 25  1  0  0  0
 24 29  1  0  0  0
 25 26  2  0  0  0
 26 27  1  0  0  0
 27 28  2  0  0  0
 28 29  1  0  0  0
 29 30  2  0  0  0
 30 31  1  0  0  0
 31 32  2  0  0  0
M  END
>  <CHROM.0>
-58.83215363,-71.51365113,-163.37110654,-145.23657791,168.62765228,173.73523367
81.82586086,-49.90128696

>  <CHROM.1>
14.38411190,88.26419031,106.63675969,112.95475448,77.26982353,10.93814716
103.06892905,-127.09765356,-20.80372438,21.55304979,-13.11663409,0.82402413
-0.59861588,-2.60123447

>  <Name>
F2880-4230

>  <RI>
3.85826e+07

>  <Rbt.Current_Directory>
/home/adria/Escritorio/rDock_CMTR_LC/2pxcA_model/inputs_sah

>  <Rbt.Executable>
rbdock ($Id: //depot/dev/client3/rdock/2013.1/src/exe/rbdock.cxx#4 $)

>  <Rbt.Library>
libRbt.so (2013.1, Build901 2013/11/27)

>  <Rbt.Parameter_File>
/home/adria/Escritorio/rDock_2013.1_src/data/scripts/dock.prm

>  <Rbt.Receptor>
sah_rdock.prm

>  <SCORE>
-197.009

>  <SCORE.INTER>
-21.9572

>  <SCORE.INTER.CONST>
1

>  <SCORE.INTER.POLAR>
-1.76423

>  <SCORE.INTER.REPUL>
0

>  <SCORE.INTER.ROT>
8

>  <SCORE.INTER.VDW>
-29.3588

>  <SCORE.INTER.norm>
-0.686162

>  <SCORE.INTRA>
-178.269

>  <SCORE.INTRA.DIHEDRAL>
4.1567

>  <SCORE.INTRA.DIHEDRAL.0>
9.64994

>  <SCORE.INTRA.POLAR>
0

>  <SCORE.INTRA.POLAR.0>
0

>  <SCORE.INTRA.REPUL>
0

>  <SCORE.INTRA.REPUL.0>
0

>  <SCORE.INTRA.VDW>
-180.347

>  <SCORE.INTRA.VDW.0>
178.431

>  <SCORE.INTRA.norm>
-5.57091

>  <SCORE.RESTR>
0

>  <SCORE.RESTR.CAVITY>
0

>  <SCORE.RESTR.norm>
0

>  <SCORE.SYSTEM>
3.21673

>  <SCORE.SYSTEM.CONST>
0

>  <SCORE.SYSTEM.DIHEDRAL>
10.345

>  <SCORE.SYSTEM.POLAR>
-3.45613

>  <SCORE.SYSTEM.REPUL>
0.0477877

>  <SCORE.SYSTEM.VDW>
9.55617

>  <SCORE.SYSTEM.norm>
0.100523

>  <SCORE.heavy>
32

>  <SCORE.norm>
-6.15655

$$$$
F2880-4230
  rDOCK(R)          3D
libRbt.so/2013.1/901 2013/11/27
 33 36  0  0  0  0  0  0  0  0999 V2000
  -26.5645   21.0150   -8.9399 C   0  0  0  0  0  0
  -25.4775   22.4245   -9.5725 O   0  0  0  0  0  0
  -24.4349   23.4379   -9.5140 C   0  0  0  0  0  0
  -24.0838   23.9345  -10.7552 C   0  0  0  0  0  0
  -22.7843   24.2212  -11.0550 C   0  0  0  0  0  0
  -21.9015   24.3612   -9.9812 C   0  0  0  0  0  0
  -20.5613   24.5567   -9.9291 O   0  0  0  0  0  0
  -20.0871   25.7855  -10.4120 C   0  0  0  0  0  0
  -22.3907   24.2531   -8.6689 C   0  0  0  0  0  0
  -23.6659   23.8100   -8.4254 C   0  0  0  0  0  0
  -22.4290   24.0657  -12.7922 S   0  0  0  0  0  0
  -23.3166   23.1389  -13.3562 O   0  0  0  0  0  0
  -22.2744   25.4426  -13.3305 O   0  0  0  0  0  0
  -20.8956   23.3285  -12.9532 N   0  0  0  0  0  0
  -20.4090   22.2239  -12.0736 C   0  0  0  0  0  0
  -21.2679   20.8312  -12.0984 C   0  0  0  0  0  0
  -22.7789   20.7190  -11.7662 N   0  0  0  0  0  0
  -23.8161   20.1814  -13.1455 C   0  0  0  0  0  0
  -25.3949   19.0618  -12.8886 C   0  0  0  0  0  0
  -25.7326   18.3439  -11.1945 O   0  0  0  0  0  0
  -24.4622   18.5760   -9.8119 C   0  0  0  0  0  0
  -23.0113   19.8568  -10.1946 C   0  0  0  0  0  0
  -20.5585   19.6533  -12.9525 C   0  0  0  0  0  0
  -19.5038   19.6632  -14.0610 C   0  0  0  0  0  0
  -18.5523   20.6481  -14.6195 C   0  0  0  0  0  0
  -17.8072   20.5400  -15.8098 C   0  0  0  0  0  0
  -17.7344   19.3220  -16.4207 C   0  0  0  0  0  0
  -18.4785   18.2837  -15.8785 C   0  0  0  0  0  0
  -19.3585   18.4414  -14.7758 C   0  0  0  0  0  0
  -20.0787   17.2973  -14.4223 C   0  0  0  0  0  0
  -20.9321   17.2581  -13.3352 C   0  0  0  0  0  0
  -21.1550   18.4071  -12.6049 C   0  0  0  0  0  0
  -20.2196   24.0884  -13.0837 H   0  0  0  0  0  0
  1  2  1  0  0  0
  2  3  1  0  0  0
  3  4  2  0  0  0
  3 10  1  0  0  0
  4  5  1  0  0  0
  5  6  2  0  0  0
  5 11  1  0  0  0
  6  7  1  0  0  0
  6  9  1  0  0  0
  7  8  1  0  0  0
  9 10  2  0  0  0
 11 12  2  0  0  0
 11 13  2  0  0  0
 11 14  1  0  0  0
 14 15  1  0  0  0
 14 33  1  0  0  0
 15 16  1  0  0  0
 16 17  1  0  0  0
 16 23  1  0  0  0
 17 18  1  0  0  0
 17 22  1  0  0  0
 18 19  1  0  0  0
 19 20  1  0  0  0
 20 21  1  0  0  0
 21 22  1  0  0  0
 23 24  2  0  0  0
 23 32  1  0  0  0
 24 25  1  0  0  0
 24 29  1  0  0  0
 25 26  2  0  0  0
 26 27  1  0  0  0
 27 28  2  0  0  0
 28 29  1  0  0  0
 29 30  2  0  0  0
 30 31  1  0  0  0
 31 32  2  0  0  0
M  END
>  <CHROM.0>
-55.86221860,69.27105896,-6.10192772,69.46835800,168.66173172,68.79038514
-157.58755689,-158.50697890

>  <CHROM.1>
165.23306885,-26.78709470,66.75859144,38.73153716,61.68533964,-57.56885414
116.07169135,-21.50662155,-22.03640581,21.51490038,-12.10107813,2.32537248
0.60938685,0.33030471

>  <Name>
F2880-4230

>  <RI>
3.85826e+07

>  <Rbt.Current_Directory>
/home/adria/Escritorio/rDock_CMTR_LC/2pxcA_model/inputs_sah

>  <Rbt.Executable>
rbdock ($Id: //depot/dev/client3/rdock/2013.1/src/exe/rbdock.cxx#4 $)

>  <Rbt.Library>
libRbt.so (2013.1, Build901 2013/11/27)

>  <Rbt.Parameter_File>
/home/adria/Escritorio/rDock_2013.1_src/data/scripts/dock.prm

>  <Rbt.Receptor>
sah_rdock.prm

>  <SCORE>
-196.269

>  <SCORE.INTER>
-10.8985

>  <SCORE.INTER.CONST>
1

>  <SCORE.INTER.POLAR>
-0.759882

>  <SCORE.INTER.REPUL>
0.0998405

>  <SCORE.INTER.ROT>
8

>  <SCORE.INTER.VDW>
-22.2141

>  <SCORE.INTER.norm>
-0.340579

>  <SCORE.INTRA>
-183.679

>  <SCORE.INTRA.DIHEDRAL>
2.06312

>  <SCORE.INTRA.DIHEDRAL.0>
9.64994

>  <SCORE.INTRA.POLAR>
0

>  <SCORE.INTRA.POLAR.0>
0

>  <SCORE.INTRA.REPUL>
0

>  <SCORE.INTRA.REPUL.0>
0

>  <SCORE.INTRA.VDW>
-184.71

>  <SCORE.INTRA.VDW.0>
178.431

>  <SCORE.INTRA.norm>
-5.73995

>  <SCORE.RESTR>
0.0183609

>  <SCORE.RESTR.CAVITY>
0.0183609

>  <SCORE.RESTR.norm>
0.000573779

>  <SCORE.SYSTEM>
-1.7104

>  <SCORE.SYSTEM.CONST>
0

>  <SCORE.SYSTEM.DIHEDRAL>
6.99431

>  <SCORE.SYSTEM.POLAR>
-4.23374

>  <SCORE.SYSTEM.VDW>
9.18714

>  <SCORE.SYSTEM.norm>
-0.0534501

>  <SCORE.heavy>
32

>  <SCORE.norm>
-6.13341

$$$$
F2880-4230
  rDOCK(R)          3D
libRbt.so/2013.1/901 2013/11/27
 33 36  0  0  0  0  0  0  0  0999 V2000
  -14.1977   20.7838  -16.4246 C   0  0  0  0  0  0
  -15.6990   19.7518  -16.9240 O   0  0  0  0  0  0
  -17.1023   19.3698  -16.9714 C   0  0  0  0  0  0
  -17.8256   19.8052  -15.8769 C   0  0  0  0  0  0
  -18.7912   19.0215  -15.3163 C   0  0  0  0  0  0
  -19.2792   17.9653  -16.0897 C   0  0  0  0  0  0
  -20.1565   16.9696  -15.8138 O   0  0  0  0  0  0
  -21.3691   17.3487  -15.2186 C   0  0  0  0  0  0
  -18.8010   17.7923  -17.3991 C   0  0  0  0  0  0
  -17.7227   18.5060  -17.8567 C   0  0  0  0  0  0
  -19.0170   19.3446  -13.5805 S   0  0  0  0  0  0
  -19.3211   18.1407  -12.9301 O   0  0  0  0  0  0
  -17.8919   20.2151  -13.1492 O   0  0  0  0  0  0
  -20.4307   20.2874  -13.3988 N   0  0  0  0  0  0
  -20.9601   20.7440  -12.0790 C   0  0  0  0  0  0
  -22.3819   21.5540  -12.0971 C   0  0  0  0  0  0
  -23.7558   20.9356  -11.7285 N   0  0  0  0  0  0
  -24.4849   21.5743  -10.2028 C   0  0  0  0  0  0
  -26.4124   21.7911   -9.9791 C   0  0  0  0  0  0
  -27.5321   21.5333  -11.4553 O   0  0  0  0  0  0
  -26.7728   21.2324  -13.1618 C   0  0  0  0  0  0
  -24.8304   20.8883  -13.1811 C   0  0  0  0  0  0
  -22.2060   23.1628  -12.0616 C   0  0  0  0  0  0
  -21.1267   24.0783  -11.4801 C   0  0  0  0  0  0
  -19.7507   23.9113  -10.9639 C   0  0  0  0  0  0
  -18.9842   24.8514  -10.2482 C   0  0  0  0  0  0
  -19.4143   26.1459  -10.2119 C   0  0  0  0  0  0
  -20.6336   26.4366  -10.8073 C   0  0  0  0  0  0
  -21.4807   25.4530  -11.3819 C   0  0  0  0  0  0
  -22.7025   25.9296  -11.8643 C   0  0  0  0  0  0
  -23.6183   25.1192  -12.5094 C   0  0  0  0  0  0
  -23.3685   23.7671  -12.6211 C   0  0  0  0  0  0
  -21.1389   19.8714  -14.0127 H   0  0  0  0  0  0
  1  2  1  0  0  0
  2  3  1  0  0  0
  3  4  2  0  0  0
  3 10  1  0  0  0
  4  5  1  0  0  0
  5  6  2  0  0  0
  5 11  1  0  0  0
  6  7  1  0  0  0
  6  9  1  0  0  0
  7  8  1  0  0  0
  9 10  2  0  0  0
 11 12  2  0  0  0
 11 13  2  0  0  0
 11 14  1  0  0  0
 14 15  1  0  0  0
 14 33  1  0  0  0
 15 16  1  0  0  0
 16 17  1  0  0  0
 16 23  1  0  0  0
 17 18  1  0  0  0
 17 22  1  0  0  0
 18 19  1  0  0  0
 19 20  1  0  0  0
 20 21  1  0  0  0
 21 22  1  0  0  0
 23 24  2  0  0  0
 23 32  1  0  0  0
 24 25  1  0  0  0
 24 29  1  0  0  0
 25 26  2  0  0  0
 26 27  1  0  0  0
 27 28  2  0  0  0
 28 29  1  0  0  0
 29 30  2  0  0  0
 30 31  1  0  0  0
 31 32  2  0  0  0
M  END
>  <CHROM.0>
-65.17398509,-73.26724999,-44.20440031,59.53369120,-31.24654309,-60.47673347
81.86676414,-162.16838025

>  <CHROM.1>
-24.87674654,-144.73443998,48.98376892,179.11213810,-176.02269217,101.47947798
111.88989858,-28.62442598,-20.80578773,21.20478797,-13.31426267,-0.78236078
0.27156452,0.54157788

>  <Name>
F2880-4230

>  <RI>
3.85826e+07

>  <Rbt.Current_Directory>
/home/adria/Escritorio/rDock_CMTR_LC/2pxcA_model/inputs_sah

>  <Rbt.Executable>
rbdock ($Id: //depot/dev/client3/rdock/2013.1/src/exe/rbdock.cxx#4 $)

>  <Rbt.Library>
libRbt.so (2013.1, Build901 2013/11/27)

>  <Rbt.Parameter_File>
/home/adria/Escritorio/rDock_2013.1_src/data/scripts/dock.prm

>  <Rbt.Receptor>
sah_rdock.prm

>  <SCORE>
-205.047

>  <SCORE.INTER>
-15.8638

>  <SCORE.INTER.CONST>
1

>  <SCORE.INTER.POLAR>
-0.736209

>  <SCORE.INTER.REPUL>
0

>  <SCORE.INTER.ROT>
8

>  <SCORE.INTER.VDW>
-26.7607

>  <SCORE.INTER.norm>
-0.495744

>  <SCORE.INTRA>
-181.747

>  <SCORE.INTRA.DIHEDRAL>
-0.0337186

>  <SCORE.INTRA.DIHEDRAL.0>
9.64994

>  <SCORE.INTRA.POLAR>
0

>  <SCORE.INTRA.POLAR.0>
0

>  <SCORE.INTRA.REPUL>
0

>  <SCORE.INTRA.REPUL.0>
0

>  <SCORE.INTRA.VDW>
-181.731

>  <SCORE.INTRA.VDW.0>
178.431

>  <SCORE.INTRA.norm>
-5.67961

>  <SCORE.RESTR>
0.00427708

>  <SCORE.RESTR.CAVITY>
0.00427708

>  <SCORE.RESTR.norm>
0.000133659

>  <SCORE.SYSTEM>
-7.43992

>  <SCORE.SYSTEM.CONST>
0

>  <SCORE.SYSTEM.DIHEDRAL>
6.42031

>  <SCORE.SYSTEM.POLAR>
-3.96376

>  <SCORE.SYSTEM.REPUL>
0.0390093

>  <SCORE.SYSTEM.VDW>
2.63166

>  <SCORE.SYSTEM.norm>
-0.232498

>  <SCORE.heavy>
32

>  <SCORE.norm>
-6.40771

$$$$
F2880-4230
  rDOCK(R)          3D
libRbt.so/2013.1/901 2013/11/27
 33 36  0  0  0  0  0  0  0  0999 V2000
  -20.8043   24.2457  -11.2826 C   0  0  0  0  0  0
  -21.0119   22.3691  -11.3432 O   0  0  0  0  0  0
  -21.6764   21.0906  -11.1396 C   0  0  0  0  0  0
  -20.9714   20.0190  -11.6545 C   0  0  0  0  0  0
  -21.6152   18.9830  -12.2653 C   0  0  0  0  0  0
  -22.9845   18.8539  -12.0197 C   0  0  0  0  0  0
  -23.9195   18.0099  -12.5202 O   0  0  0  0  0  0
  -23.4990   16.7005  -12.7972 C   0  0  0  0  0  0
  -23.6126   19.7459  -11.1349 C   0  0  0  0  0  0
  -22.9583   20.8594  -10.6727 C   0  0  0  0  0  0
  -20.6106   18.1781  -13.4946 S   0  0  0  0  0  0
  -19.5047   18.9906  -13.7806 O   0  0  0  0  0  0
  -20.4635   16.7593  -13.0765 O   0  0  0  0  0  0
  -21.4937   18.1429  -14.9572 N   0  0  0  0  0  0
  -20.8865   17.8344  -16.2864 C   0  0  0  0  0  0
  -19.4547   17.0419  -16.2749 C   0  0  0  0  0  0
  -19.2934   15.5069  -16.4287 N   0  0  0  0  0  0
  -18.6704   14.9721  -18.0390 C   0  0  0  0  0  0
  -17.4978   13.4242  -18.2420 C   0  0  0  0  0  0
  -16.8223   12.5902  -16.7098 O   0  0  0  0  0  0
  -17.1495   13.3537  -15.0100 C   0  0  0  0  0  0
  -18.4739   14.8153  -14.9736 C   0  0  0  0  0  0
  -18.1858   18.0022  -16.5717 C   0  0  0  0  0  0
  -16.7190   17.7156  -16.8998 C   0  0  0  0  0  0
  -15.9292   16.5355  -17.3136 C   0  0  0  0  0  0
  -14.5267   16.4129  -17.3494 C   0  0  0  0  0  0
  -13.7737   17.5449  -17.2334 C   0  0  0  0  0  0
  -14.4386   18.7392  -16.9937 C   0  0  0  0  0  0
  -15.8409   18.8301  -16.7927 C   0  0  0  0  0  0
  -16.3158   20.1085  -16.4883 C   0  0  0  0  0  0
  -17.6601   20.3865  -16.3239 C   0  0  0  0  0  0
  -18.5782   19.3584  -16.3809 C   0  0  0  0  0  0
  -22.0949   18.9736  -14.9543 H   0  0  0  0  0  0
  1  2  1  0  0  0
  2  3  1  0  0  0
  3  4  2  0  0  0
  3 10  1  0  0  0
  4  5  1  0  0  0
  5  6  2  0  0  0
  5 11  1  0  0  0
  6  7  1  0  0  0
  6  9  1  0  0  0
  7  8  1  0  0  0
  9 10  2  0  0  0
 11 12  2  0  0  0
 11 13  2  0  0  0
 11 14  1  0  0  0
 14 15  1  0  0  0
 14 33  1  0  0  0
 15 16  1  0  0  0
 16 17  1  0  0  0
 16 23  1  0  0  0
 17 18  1  0  0  0
 17 22  1  0  0  0
 18 19  1  0  0  0
 19 20  1  0  0  0
 20 21  1  0  0  0
 21 22  1  0  0  0
 23 24  2  0  0  0
 23 32  1  0  0  0
 24 25  1  0  0  0
 24 29  1  0  0  0
 25 26  2  0  0  0
 26 27  1  0  0  0
 27 28  2  0  0  0
 28 29  1  0  0  0
 29 30  2  0  0  0
 30 31  1  0  0  0
 31 32  2  0  0  0
M  END
>  <CHROM.0>
178.02596950,-76.83035626,-9.59201284,62.97055189,-31.72673045,62.49391681
-36.32131420,-165.76074360

>  <CHROM.1>
176.13108752,-14.08567346,35.49596300,165.61793700,19.95428473,96.17368226
105.61108580,-167.77011936,-19.34931722,17.97486716,-14.67546083,-2.42845054
-0.55490637,-2.80749932

>  <Name>
F2880-4230

>  <RI>
3.85826e+07

>  <Rbt.Current_Directory>
/home/adria/Escritorio/rDock_CMTR_LC/2pxcA_model/inputs_sah

>  <Rbt.Executable>
rbdock ($Id: //depot/dev/client3/rdock/2013.1/src/exe/rbdock.cxx#4 $)

>  <Rbt.Library>
libRbt.so (2013.1, Build901 2013/11/27)

>  <Rbt.Parameter_File>
/home/adria/Escritorio/rDock_2013.1_src/data/scripts/dock.prm

>  <Rbt.Receptor>
sah_rdock.prm

>  <SCORE>
-201.059

>  <SCORE.INTER>
-13.3557

>  <SCORE.INTER.CONST>
1

>  <SCORE.INTER.POLAR>
-0.824621

>  <SCORE.INTER.REPUL>
0.00292051

>  <SCORE.INTER.ROT>
8

>  <SCORE.INTER.VDW>
-23.9666

>  <SCORE.INTER.norm>
-0.417367

>  <SCORE.INTRA>
-180.673

>  <SCORE.INTRA.DIHEDRAL>
-0.0348764

>  <SCORE.INTRA.DIHEDRAL.0>
9.64994

>  <SCORE.INTRA.POLAR>
0

>  <SCORE.INTRA.POLAR.0>
0

>  <SCORE.INTRA.REPUL>
0

>  <SCORE.INTRA.REPUL.0>
0

>  <SCORE.INTRA.VDW>
-180.656

>  <SCORE.INTRA.VDW.0>
178.431

>  <SCORE.INTRA.norm>
-5.64604

>  <SCORE.RESTR>
0

>  <SCORE.RESTR.CAVITY>
0

>  <SCORE.RESTR.norm>
0

>  <SCORE.SYSTEM>
-7.03006

>  <SCORE.SYSTEM.CONST>
0

>  <SCORE.SYSTEM.DIHEDRAL>
9.54586

>  <SCORE.SYSTEM.POLAR>
-4.63652

>  <SCORE.SYSTEM.REPUL>
0.0446465

>  <SCORE.SYSTEM.VDW>
3.73794

>  <SCORE.SYSTEM.norm>
-0.219689

>  <SCORE.heavy>
32

>  <SCORE.norm>
-6.2831

$$$$
F2880-4230
  rDOCK(R)          3D
libRbt.so/2013.1/901 2013/11/27
 33 36  0  0  0  0  0  0  0  0999 V2000
  -14.6793   18.8840  -16.8543 C   0  0  0  0  0  0
  -16.3004   17.9941  -16.4689 O   0  0  0  0  0  0
  -17.6538   17.8448  -15.9558 C   0  0  0  0  0  0
  -18.1629   19.0071  -15.4077 C   0  0  0  0  0  0
  -18.9362   18.9740  -14.2844 C   0  0  0  0  0  0
  -19.5007   17.7435  -13.9389 C   0  0  0  0  0  0
  -20.2322   17.3507  -12.8676 O   0  0  0  0  0  0
  -21.5618   17.7954  -12.8185 C   0  0  0  0  0  0
  -19.2930   16.6322  -14.7725 C   0  0  0  0  0  0
  -18.3837   16.6797  -15.7984 C   0  0  0  0  0  0
  -18.8196   20.4687  -13.3251 S   0  0  0  0  0  0
  -17.7904   20.3256  -12.3843 O   0  0  0  0  0  0
  -18.8651   21.6054  -14.2819 O   0  0  0  0  0  0
  -20.2365   20.6003  -12.3788 N   0  0  0  0  0  0
  -21.4699   21.3143  -12.8256 C   0  0  0  0  0  0
  -22.1292   22.3756  -11.7688 C   0  0  0  0  0  0
  -21.7436   23.8744  -11.6655 N   0  0  0  0  0  0
  -22.8256   24.8597  -10.6045 C   0  0  0  0  0  0
  -22.1590   26.3463   -9.5284 C   0  0  0  0  0  0
  -20.3136   26.6339   -9.4220 O   0  0  0  0  0  0
  -19.1279   25.3920  -10.2163 C   0  0  0  0  0  0
  -19.9654   24.0451  -11.3894 C   0  0  0  0  0  0
  -23.5459   21.8818  -11.1610 C   0  0  0  0  0  0
  -23.9151   21.0217   -9.9506 C   0  0  0  0  0  0
  -23.2174   20.5161   -8.7484 C   0  0  0  0  0  0
  -23.6683   19.5335   -7.8459 C   0  0  0  0  0  0
  -24.9774   19.1527   -7.9027 C   0  0  0  0  0  0
  -25.7623   19.6930   -8.9116 C   0  0  0  0  0  0
  -25.2593   20.5558   -9.9203 C   0  0  0  0  0  0
  -26.1867   20.9355  -10.8941 C   0  0  0  0  0  0
  -25.8816   21.8202  -11.9118 C   0  0  0  0  0  0
  -24.5928   22.2970  -12.0336 C   0  0  0  0  0  0
  -19.9317   20.8446  -11.4307 H   0  0  0  0  0  0
  1  2  1  0  0  0
  2  3  1  0  0  0
  3  4  2  0  0  0
  3 10  1  0  0  0
  4  5  1  0  0  0
  5  6  2  0  0  0
  5 11  1  0  0  0
  6  7  1  0  0  0
  6  9  1  0  0  0
  7  8  1  0  0  0
  9 10  2  0  0  0
 11 12  2  0  0  0
 11 13  2  0  0  0
 11 14  1  0  0  0
 14 15  1  0  0  0
 14 33  1  0  0  0
 15 16  1  0  0  0
 16 17  1  0  0  0
 16 23  1  0  0  0
 17 18  1  0  0  0
 17 22  1  0  0  0
 18 19  1  0  0  0
 19 20  1  0  0  0
 20 21  1  0  0  0
 21 22  1  0  0  0
 23 24  2  0  0  0
 23 32  1  0  0  0
 24 25  1  0  0  0
 24 29  1  0  0  0
 25 26  2  0  0  0
 26 27  1  0  0  0
 27 28  2  0  0  0
 28 29  1  0  0  0
 29 30  2  0  0  0
 30 31  1  0  0  0
 31 32  2  0  0  0
M  END
>  <CHROM.0>
-60.16875028,60.58045122,112.20410571,64.86698680,168.08339346,66.37203022
-155.32997137,-161.69416635

>  <CHROM.1>
1.51017527,-90.90340418,73.68617844,-91.04923988,-131.46785006,88.49443333
170.23633041,87.74544986,-20.94819523,20.78356722,-12.21631094,-0.67490700
0.54112201,0.34654636

>  <Name>
F2880-4230

>  <RI>
3.85826e+07

>  <Rbt.Current_Directory>
/home/adria/Escritorio/rDock_CMTR_LC/2pxcA_model/inputs_sah

>  <Rbt.Executable>
rbdock ($Id: //depot/dev/client3/rdock/2013.1/src/exe/rbdock.cxx#4 $)

>  <Rbt.Library>
libRbt.so (2013.1, Build901 2013/11/27)

>  <Rbt.Parameter_File>
/home/adria/Escritorio/rDock_2013.1_src/data/scripts/dock.prm

>  <Rbt.Receptor>
sah_rdock.prm

>  <SCORE>
-202.813

>  <SCORE.INTER>
-20.8115

>  <SCORE.INTER.CONST>
1

>  <SCORE.INTER.POLAR>
-1.64903

>  <SCORE.INTER.REPUL>
0

>  <SCORE.INTER.ROT>
8

>  <SCORE.INTER.VDW>
-28.6048

>  <SCORE.INTER.norm>
-0.65036

>  <SCORE.INTRA>
-179.953

>  <SCORE.INTRA.DIHEDRAL>
4.10798

>  <SCORE.INTRA.DIHEDRAL.0>
9.64994

>  <SCORE.INTRA.POLAR>
0

>  <SCORE.INTRA.POLAR.0>
0

>  <SCORE.INTRA.REPUL>
0

>  <SCORE.INTRA.REPUL.0>
0

>  <SCORE.INTRA.VDW>
-182.007

>  <SCORE.INTRA.VDW.0>
178.431

>  <SCORE.INTRA.norm>
-5.62354

>  <SCORE.RESTR>
0

>  <SCORE.RESTR.CAVITY>
0

>  <SCORE.RESTR.norm>
0

>  <SCORE.SYSTEM>
-2.04833

>  <SCORE.SYSTEM.CONST>
0

>  <SCORE.SYSTEM.DIHEDRAL>
6.12592

>  <SCORE.SYSTEM.POLAR>
-4.28434

>  <SCORE.SYSTEM.VDW>
9.45548

>  <SCORE.SYSTEM.norm>
-0.0640103

>  <SCORE.heavy>
32

>  <SCORE.norm>
-6.33791

$$$$
F2880-4230
  rDOCK(R)          3D
libRbt.so/2013.1/901 2013/11/27
 33 36  0  0  0  0  0  0  0  0999 V2000
  -19.2905   13.6694  -18.9214 C   0  0  0  0  0  0
  -18.8732   15.0042  -17.6515 O   0  0  0  0  0  0
  -18.0859   16.0587  -17.0304 C   0  0  0  0  0  0
  -18.5329   16.4050  -15.7691 C   0  0  0  0  0  0
  -18.5323   17.7052  -15.3563 C   0  0  0  0  0  0
  -17.7332   18.5984  -16.0743 C   0  0  0  0  0  0
  -17.5705   19.9412  -15.9867 O   0  0  0  0  0  0
  -18.7408   20.7129  -15.9322 C   0  0  0  0  0  0
  -16.9449   18.1189  -17.1335 C   0  0  0  0  0  0
  -17.1006   16.8409  -17.6068 C   0  0  0  0  0  0
  -19.7967   18.0442  -14.1503 S   0  0  0  0  0  0
  -20.8172   18.7880  -14.7587 O   0  0  0  0  0  0
  -20.0658   16.7714  -13.4312 O   0  0  0  0  0  0
  -19.1418   19.1079  -12.9839 N   0  0  0  0  0  0
  -19.6184   20.5080  -12.7768 C   0  0  0  0  0  0
  -21.0759   20.6898  -12.0551 C   0  0  0  0  0  0
  -21.6756   19.7071  -11.0156 N   0  0  0  0  0  0
  -22.7649   20.4742   -9.7941 C   0  0  0  0  0  0
  -24.3261   19.5553   -9.0658 C   0  0  0  0  0  0
  -24.8394   17.9145   -9.8032 O   0  0  0  0  0  0
  -23.9452   17.2594  -11.3363 C   0  0  0  0  0  0
  -22.3026   18.2273  -11.8429 C   0  0  0  0  0  0
  -21.6475   22.2022  -12.1322 C   0  0  0  0  0  0
  -21.1453   23.5337  -11.5698 C   0  0  0  0  0  0
  -19.8863   24.0344  -10.9769 C   0  0  0  0  0  0
  -19.6836   25.2515  -10.2978 C   0  0  0  0  0  0
  -20.6525   26.2088  -10.3797 C   0  0  0  0  0  0
  -21.8220   25.8858  -11.0533 C   0  0  0  0  0  0
  -22.0876   24.5998  -11.5924 C   0  0  0  0  0  0
  -23.3518   24.4461  -12.1675 C   0  0  0  0  0  0
  -23.7511   23.2797  -12.7933 C   0  0  0  0  0  0
  -22.9107   22.1857  -12.7908 C   0  0  0  0  0  0
  -18.1223   19.0179  -13.0478 H   0  0  0  0  0  0
  1  2  1  0  0  0
  2  3  1  0  0  0
  3  4  2  0  0  0
  3 10  1  0  0  0
  4  5  1  0  0  0
  5  6  2  0  0  0
  5 11  1  0  0  0
  6  7  1  0  0  0
  6  9  1  0  0  0
  7  8  1  0  0  0
  9 10  2  0  0  0
 11 12  2  0  0  0
 11 13  2  0  0  0
 11 14  1  0  0  0
 14 15  1  0  0  0
 14 33  1  0  0  0
 15 16  1  0  0  0
 16 17  1  0  0  0
 16 23  1  0  0  0
 17 18  1  0  0  0
 17 22  1  0  0  0
 18 19  1  0  0  0
 19 20  1  0  0  0
 20 21  1  0  0  0
 21 22  1  0  0  0
 23 24  2  0  0  0
 23 32  1  0  0  0
 24 25  1  0  0  0
 24 29  1  0  0  0
 25 26  2  0  0  0
 26 27  1  0  0  0
 27 28  2  0  0  0
 28 29  1  0  0  0
 29 30  2  0  0  0
 30 31  1  0  0  0
 31 32  2  0  0  0
M  END
>  <CHROM.0>
-63.52217640,-168.87498169,109.69904393,64.46119975,168.37121649,-57.51695663
-36.84267174,-161.38974389

>  <CHROM.1>
-168.03858265,-106.56613447,-48.04574885,114.48059279,72.67986651,30.35117630
149.59923559,-63.19088780,-20.55849108,19.84786370,-13.38265911,1.03108889
-0.74652952,-2.82318148

>  <Name>
F2880-4230

>  <RI>
3.85826e+07

>  <Rbt.Current_Directory>
/home/adria/Escritorio/rDock_CMTR_LC/2pxcA_model/inputs_sah

>  <Rbt.Executable>
rbdock ($Id: //depot/dev/client3/rdock/2013.1/src/exe/rbdock.cxx#4 $)

>  <Rbt.Library>
libRbt.so (2013.1, Build901 2013/11/27)

>  <Rbt.Parameter_File>
/home/adria/Escritorio/rDock_2013.1_src/data/scripts/dock.prm

>  <Rbt.Receptor>
sah_rdock.prm

>  <SCORE>
-196.465

>  <SCORE.INTER>
-13.9701

>  <SCORE.INTER.CONST>
1

>  <SCORE.INTER.POLAR>
-0.824621

>  <SCORE.INTER.REPUL>
0.959166

>  <SCORE.INTER.ROT>
8

>  <SCORE.INTER.VDW>
-29.3622

>  <SCORE.INTER.norm>
-0.436565

>  <SCORE.INTRA>
-181.209

>  <SCORE.INTRA.DIHEDRAL>
1.72173

>  <SCORE.INTRA.DIHEDRAL.0>
9.64994

>  <SCORE.INTRA.POLAR>
0

>  <SCORE.INTRA.POLAR.0>
0

>  <SCORE.INTRA.REPUL>
0

>  <SCORE.INTRA.REPUL.0>
0

>  <SCORE.INTRA.VDW>
-182.07

>  <SCORE.INTRA.VDW.0>
178.431

>  <SCORE.INTRA.norm>
-5.66277

>  <SCORE.RESTR>
0

>  <SCORE.RESTR.CAVITY>
0

>  <SCORE.RESTR.norm>
0

>  <SCORE.SYSTEM>
-1.28576

>  <SCORE.SYSTEM.CONST>
0

>  <SCORE.SYSTEM.DIHEDRAL>
6.41711

>  <SCORE.SYSTEM.POLAR>
-4.19985

>  <SCORE.SYSTEM.VDW>
9.78517

>  <SCORE.SYSTEM.norm>
-0.0401799

>  <SCORE.heavy>
32

>  <SCORE.norm>
-6.13952

$$$$
F2880-4230
  rDOCK(R)          3D
libRbt.so/2013.1/901 2013/11/27
 33 36  0  0  0  0  0  0  0  0999 V2000
  -19.9901   25.5516   -9.9495 C   0  0  0  0  0  0
  -21.5420   24.7103   -9.2771 O   0  0  0  0  0  0
  -22.7016   23.8314   -9.2983 C   0  0  0  0  0  0
  -22.8507   23.1503  -10.4918 C   0  0  0  0  0  0
  -24.0860   22.9408  -11.0313 C   0  0  0  0  0  0
  -25.1836   23.0884  -10.1795 C   0  0  0  0  0  0
  -26.5191   23.0372  -10.4048 O   0  0  0  0  0  0
  -27.0816   24.1227  -11.0930 C   0  0  0  0  0  0
  -24.9682   23.3893   -8.8245 C   0  0  0  0  0  0
  -23.7236   23.7437   -8.3694 C   0  0  0  0  0  0
  -24.0475   22.8061  -12.8057 S   0  0  0  0  0  0
  -25.3581   22.6513  -13.2781 O   0  0  0  0  0  0
  -23.1476   23.8789  -13.3049 O   0  0  0  0  0  0
  -23.2810   21.3322  -13.2065 N   0  0  0  0  0  0
  -21.8576   21.0207  -12.8788 C   0  0  0  0  0  0
  -21.1739   19.7709  -13.6840 C   0  0  0  0  0  0
  -19.6477   19.5755  -13.8803 N   0  0  0  0  0  0
  -19.1548   17.8964  -14.3329 C   0  0  0  0  0  0
  -17.6532   17.5366  -15.5280 C   0  0  0  0  0  0
  -16.8266   18.9685  -16.4033 O   0  0  0  0  0  0
  -17.5578   20.7063  -16.2465 C   0  0  0  0  0  0
  -18.9696   20.9166  -14.8847 C   0  0  0  0  0  0
  -22.1603   18.4987  -13.8539 C   0  0  0  0  0  0
  -22.8958   17.9065  -15.0579 C   0  0  0  0  0  0
  -22.8343   18.0615  -16.5275 C   0  0  0  0  0  0
  -23.7620   17.5929  -17.4780 C   0  0  0  0  0  0
  -24.7027   16.6901  -17.0756 C   0  0  0  0  0  0
  -24.7439   16.3598  -15.7284 C   0  0  0  0  0  0
  -23.9137   16.9620  -14.7469 C   0  0  0  0  0  0
  -24.1553   16.5536  -13.4326 C   0  0  0  0  0  0
  -23.3978   16.9928  -12.3627 C   0  0  0  0  0  0
  -22.4098   17.9329  -12.5704 C   0  0  0  0  0  0
  -23.5433   21.1218  -14.1753 H   0  0  0  0  0  0
  1  2  1  0  0  0
  2  3  1  0  0  0
  3  4  2  0  0  0
  3 10  1  0  0  0
  4  5  1  0  0  0
  5  6  2  0  0  0
  5 11  1  0  0  0
  6  7  1  0  0  0
  6  9  1  0  0  0
  7  8  1  0  0  0
  9 10  2  0  0  0
 11 12  2  0  0  0
 11 13  2  0  0  0
 11 14  1  0  0  0
 14 15  1  0  0  0
 14 33  1  0  0  0
 15 16  1  0  0  0
 16 17  1  0  0  0
 16 23  1  0  0  0
 17 18  1  0  0  0
 17 22  1  0  0  0
 18 19  1  0  0  0
 19 20  1  0  0  0
 20 21  1  0  0  0
 21 22  1  0  0  0
 23 24  2  0  0  0
 23 32  1  0  0  0
 24 25  1  0  0  0
 24 29  1  0  0  0
 25 26  2  0  0  0
 26 27  1  0  0  0
 27 28  2  0  0  0
 28 29  1  0  0  0
 29 30  2  0  0  0
 30 31  1  0  0  0
 31 32  2  0  0  0
M  END
>  <CHROM.0>
38.18126098,-165.67419657,109.45455018,61.39184251,-30.15609159,62.60117607
-157.29045689,-161.00841194

>  <CHROM.1>
-0.04834238,-177.45483391,-72.35892263,-63.40619241,-163.40395521,157.89340263
161.65844942,108.34959402,-22.59152594,20.75760914,-13.05012691,-1.95093704
-0.17524493,-2.48391434

>  <Name>
F2880-4230

>  <RI>
3.85826e+07

>  <Rbt.Current_Directory>
/home/adria/Escritorio/rDock_CMTR_LC/2pxcA_model/inputs_sah

>  <Rbt.Executable>
rbdock ($Id: //depot/dev/client3/rdock/2013.1/src/exe/rbdock.cxx#4 $)

>  <Rbt.Library>
libRbt.so (2013.1, Build901 2013/11/27)

>  <Rbt.Parameter_File>
/home/adria/Escritorio/rDock_2013.1_src/data/scripts/dock.prm

>  <Rbt.Receptor>
sah_rdock.prm

>  <SCORE>
-189.84

>  <SCORE.INTER>
-7.14064

>  <SCORE.INTER.CONST>
1

>  <SCORE.INTER.POLAR>
0

>  <SCORE.INTER.REPUL>
0

>  <SCORE.INTER.ROT>
8

>  <SCORE.INTER.VDW>
-20.5406

>  <SCORE.INTER.norm>
-0.223145

>  <SCORE.INTRA>
-180.788

>  <SCORE.INTRA.DIHEDRAL>
1.88548

>  <SCORE.INTRA.DIHEDRAL.0>
9.64994

>  <SCORE.INTRA.POLAR>
0

>  <SCORE.INTRA.POLAR.0>
0

>  <SCORE.INTRA.REPUL>
0

>  <SCORE.INTRA.REPUL.0>
0

>  <SCORE.INTRA.VDW>
-181.731

>  <SCORE.INTRA.VDW.0>
178.431

>  <SCORE.INTRA.norm>
-5.64963

>  <SCORE.RESTR>
0.00119412

>  <SCORE.RESTR.CAVITY>
0.00119412

>  <SCORE.RESTR.norm>
3.73163e-05

>  <SCORE.SYSTEM>
-1.91273

>  <SCORE.SYSTEM.CONST>
0

>  <SCORE.SYSTEM.DIHEDRAL>
11.6381

>  <SCORE.SYSTEM.POLAR>
-4.25632

>  <SCORE.SYSTEM.REPUL>
0.128854

>  <SCORE.SYSTEM.VDW>
6.09543

>  <SCORE.SYSTEM.norm>
-0.0597729

>  <SCORE.heavy>
32

>  <SCORE.norm>
-5.93251

$$$$
