F2705-0009
  rDOCK(R)          3D
libRbt.so/2013.1/901 2013/11/27
 24 26  0  0  0  0  0  0  0  0999 V2000
  -23.9847   19.7317   -8.9194 C   0  0  0  0  0  0
  -22.9331   20.7901   -9.8634 C   0  0  0  0  0  0
  -23.3843   22.1920  -11.2068 C   0  0  0  0  0  0
  -22.3991   23.0706  -11.8660 C   0  0  0  0  0  0
  -21.7693   21.9705  -12.6148 C   0  0  0  0  0  0
  -20.5866   22.5615  -13.5553 C   0  0  0  0  0  0
  -19.5600   21.5672  -14.6460 C   0  0  0  0  0  0
  -18.3764   20.1683  -14.1669 C   0  0  0  0  0  0
  -17.0967   19.3254  -15.1801 N   0  3  0  0  0  0
  -15.9619   19.9200  -16.1953 C   0  0  0  0  0  0
  -15.6458   21.0845  -16.5092 O   0  0  0  0  0  0
  -15.2112   19.1737  -16.9867 N   0  3  0  0  0  0
  -14.1274   19.8385  -17.7613 C   0  0  0  0  0  0
  -15.4682   17.8798  -16.9717 C   0  0  0  0  0  0
  -16.5257   17.3659  -16.2465 C   0  0  0  0  0  0
  -16.3908   16.0846  -16.5141 N   0  0  0  0  0  0
  -16.9406   14.8754  -16.2613 C   0  0  0  0  0  0
  -16.0983   14.0319  -16.8676 C   0  0  0  0  0  0
  -16.0972   12.5910  -17.0074 C   0  0  0  0  0  0
  -15.0142   14.6756  -17.5105 O   0  0  0  0  0  0
  -15.2679   15.9432  -17.2670 C   0  0  0  0  0  0
  -14.6795   17.0224  -17.6250 N   0  0  0  0  0  0
  -17.4875   17.9933  -15.3817 C   0  0  0  0  0  0
  -18.4569   17.4911  -14.9605 O   0  0  0  0  0  0
  1  2  1  0  0  0
  2  3  1  0  0  0
  3  4  1  0  0  0
  4  5  1  0  0  0
  5  6  1  0  0  0
  6  7  1  0  0  0
  7  8  1  0  0  0
  8  9  1  0  0  0
  9 10  1  0  0  0
  9 23  1  0  0  0
 10 11  2  0  0  0
 10 12  1  0  0  0
 12 13  1  0  0  0
 12 14  1  0  0  0
 14 15  1  0  0  0
 14 22  1  0  0  0
 15 16  1  0  0  0
 15 23  1  0  0  0
 16 17  1  0  0  0
 17 18  1  0  0  0
 18 19  1  0  0  0
 18 20  1  0  0  0
 20 21  1  0  0  0
 21 16  1  0  0  0
 21 22  1  0  0  0
 23 24  2  0  0  0
M  END
>  <CHROM.0>
-61.50376513,-170.94574236,109.82685113,68.45979451,-31.36451028,63.94529820
-155.95397414,-161.66633269

>  <CHROM.1>
175.91799373,67.19138205,178.36462012,-179.71190008,-61.92821852,-167.96917093
45.06216084,-17.90818472,18.63697054,-15.07423685,2.58527430,0.68974239,0.00740861

>  <Name>
F2705-0009

>  <RI>
3.3012e+07

>  <Rbt.Current_Directory>
/home/adria/Escritorio/rDock_CMTR_LC/2pxcA_model/inputs_sah

>  <Rbt.Executable>
rbdock ($Id: //depot/dev/client3/rdock/2013.1/src/exe/rbdock.cxx#4 $)

>  <Rbt.Library>
libRbt.so (2013.1, Build901 2013/11/27)

>  <Rbt.Parameter_File>
/home/adria/Escritorio/rDock_2013.1_src/data/scripts/dock.prm

>  <Rbt.Receptor>
sah_rdock.prm

>  <SCORE>
-174.099

>  <SCORE.INTER>
-7.89932

>  <SCORE.INTER.CONST>
1

>  <SCORE.INTER.POLAR>
0

>  <SCORE.INTER.REPUL>
0

>  <SCORE.INTER.ROT>
7

>  <SCORE.INTER.VDW>
-20.2993

>  <SCORE.INTER.norm>
-0.329138

>  <SCORE.INTRA>
-159.952

>  <SCORE.INTRA.DIHEDRAL>
-1.9291

>  <SCORE.INTRA.DIHEDRAL.0>
4.10568

>  <SCORE.INTRA.POLAR>
0

>  <SCORE.INTRA.POLAR.0>
0

>  <SCORE.INTRA.REPUL>
0

>  <SCORE.INTRA.REPUL.0>
0

>  <SCORE.INTRA.VDW>
-158.988

>  <SCORE.INTRA.VDW.0>
158.45

>  <SCORE.INTRA.norm>
-6.66467

>  <SCORE.RESTR>
0

>  <SCORE.RESTR.CAVITY>
0

>  <SCORE.RESTR.norm>
0

>  <SCORE.SYSTEM>
-6.24709

>  <SCORE.SYSTEM.CONST>
0

>  <SCORE.SYSTEM.DIHEDRAL>
9.21062

>  <SCORE.SYSTEM.POLAR>
-4.35

>  <SCORE.SYSTEM.VDW>
3.93759

>  <SCORE.SYSTEM.norm>
-0.260295

>  <SCORE.heavy>
24

>  <SCORE.norm>
-7.25411

$$$$
F2705-0009
  rDOCK(R)          3D
libRbt.so/2013.1/901 2013/11/27
 24 26  0  0  0  0  0  0  0  0999 V2000
  -24.1506   19.4884  -17.4906 C   0  0  0  0  0  0
  -22.8901   18.2668  -17.6802 C   0  0  0  0  0  0
  -21.2208   17.9624  -16.6339 C   0  0  0  0  0  0
  -20.1081   18.9257  -16.5302 C   0  0  0  0  0  0
  -19.4204   18.1703  -15.4700 C   0  0  0  0  0  0
  -18.3719   19.1428  -14.7036 C   0  0  0  0  0  0
  -18.8337   20.6242  -13.7956 C   0  0  0  0  0  0
  -20.0832   20.7735  -12.3800 C   0  0  0  0  0  0
  -20.8527   22.2770  -11.6576 N   0  3  0  0  0  0
  -20.1912   23.5814  -10.9274 C   0  0  0  0  0  0
  -19.0084   23.9110  -10.7118 O   0  0  0  0  0  0
  -20.8890   24.5167  -10.3069 N   0  3  0  0  0  0
  -20.1657   25.7159   -9.8015 C   0  0  0  0  0  0
  -22.1912   24.3154  -10.2416 C   0  0  0  0  0  0
  -22.7616   23.1466  -10.7073 C   0  0  0  0  0  0
  -24.0297   23.3886  -10.4526 N   0  0  0  0  0  0
  -25.2639   22.8463  -10.5565 C   0  0  0  0  0  0
  -26.0605   23.8344  -10.1348 C   0  0  0  0  0  0
  -27.4962   23.9245   -9.9725 C   0  0  0  0  0  0
  -25.3617   25.0059   -9.7576 O   0  0  0  0  0  0
  -24.1109   24.6539   -9.9623 C   0  0  0  0  0  0
  -23.0023   25.2620   -9.7620 N   0  0  0  0  0  0
  -22.1921   21.9941  -11.3509 C   0  0  0  0  0  0
  -22.7394   20.9773  -11.5397 O   0  0  0  0  0  0
  1  2  1  0  0  0
  2  3  1  0  0  0
  3  4  1  0  0  0
  4  5  1  0  0  0
  5  6  1  0  0  0
  6  7  1  0  0  0
  7  8  1  0  0  0
  8  9  1  0  0  0
  9 10  1  0  0  0
  9 23  1  0  0  0
 10 11  2  0  0  0
 10 12  1  0  0  0
 12 13  1  0  0  0
 12 14  1  0  0  0
 14 15  1  0  0  0
 14 22  1  0  0  0
 15 16  1  0  0  0
 15 23  1  0  0  0
 16 17  1  0  0  0
 17 18  1  0  0  0
 18 19  1  0  0  0
 18 20  1  0  0  0
 20 21  1  0  0  0
 21 16  1  0  0  0
 21 22  1  0  0  0
 23 24  2  0  0  0
M  END
>  <CHROM.0>
42.06207645,-75.27110174,-7.88735999,63.07804601,-30.26143842,66.14679382
-155.87510186,-164.81582387

>  <CHROM.1>
-62.56811791,170.27715069,-161.03411419,61.66940129,55.13639893,-165.68971536
-60.21464202,-22.15331890,22.19408721,-12.20002402,1.20493594,0.02756341
-2.30303152

>  <Name>
F2705-0009

>  <RI>
3.3012e+07

>  <Rbt.Current_Directory>
/home/adria/Escritorio/rDock_CMTR_LC/2pxcA_model/inputs_sah

>  <Rbt.Executable>
rbdock ($Id: //depot/dev/client3/rdock/2013.1/src/exe/rbdock.cxx#4 $)

>  <Rbt.Library>
libRbt.so (2013.1, Build901 2013/11/27)

>  <Rbt.Parameter_File>
/home/adria/Escritorio/rDock_2013.1_src/data/scripts/dock.prm

>  <Rbt.Receptor>
sah_rdock.prm

>  <SCORE>
-171.71

>  <SCORE.INTER>
-8.99857

>  <SCORE.INTER.CONST>
1

>  <SCORE.INTER.POLAR>
-0.691906

>  <SCORE.INTER.REPUL>
0.045905

>  <SCORE.INTER.ROT>
7

>  <SCORE.INTER.VDW>
-19.2756

>  <SCORE.INTER.norm>
-0.37494

>  <SCORE.INTRA>
-159.585

>  <SCORE.INTRA.DIHEDRAL>
-0.596586

>  <SCORE.INTRA.DIHEDRAL.0>
4.10568

>  <SCORE.INTRA.POLAR>
0

>  <SCORE.INTRA.POLAR.0>
0

>  <SCORE.INTRA.REPUL>
0

>  <SCORE.INTRA.REPUL.0>
0

>  <SCORE.INTRA.VDW>
-159.286

>  <SCORE.INTRA.VDW.0>
158.45

>  <SCORE.INTRA.norm>
-6.64936

>  <SCORE.RESTR>
0

>  <SCORE.RESTR.CAVITY>
0

>  <SCORE.RESTR.norm>
0

>  <SCORE.SYSTEM>
-3.12623

>  <SCORE.SYSTEM.CONST>
0

>  <SCORE.SYSTEM.DIHEDRAL>
11.2883

>  <SCORE.SYSTEM.POLAR>
-4.66132

>  <SCORE.SYSTEM.REPUL>
0.158303

>  <SCORE.SYSTEM.VDW>
6.28658

>  <SCORE.SYSTEM.norm>
-0.13026

>  <SCORE.heavy>
24

>  <SCORE.norm>
-7.15456

$$$$
F2705-0009
  rDOCK(R)          3D
libRbt.so/2013.1/901 2013/11/27
 24 26  0  0  0  0  0  0  0  0999 V2000
  -14.4298   19.5161  -17.8346 C   0  0  0  0  0  0
  -15.2377   18.5237  -16.6182 C   0  0  0  0  0  0
  -17.1758   18.3230  -16.1968 C   0  0  0  0  0  0
  -18.0812   19.4384  -15.8605 C   0  0  0  0  0  0
  -19.1904   18.5524  -15.4702 C   0  0  0  0  0  0
  -20.4894   19.4458  -15.0868 C   0  0  0  0  0  0
  -22.0038   18.7881  -14.3754 C   0  0  0  0  0  0
  -23.5692   19.7413  -13.8976 C   0  0  0  0  0  0
  -23.7492   21.2328  -12.8405 N   0  3  0  0  0  0
  -25.0615   22.1274  -12.4534 C   0  0  0  0  0  0
  -26.2700   22.0078  -12.7354 O   0  0  0  0  0  0
  -25.0090   23.2791  -11.8073 N   0  3  0  0  0  0
  -26.2914   23.9200  -11.4055 C   0  0  0  0  0  0
  -23.8002   23.7296  -11.5309 C   0  0  0  0  0  0
  -22.6698   23.0782  -11.9848 C   0  0  0  0  0  0
  -21.7350   23.8532  -11.4777 N   0  0  0  0  0  0
  -20.3931   24.0000  -11.4001 C   0  0  0  0  0  0
  -20.2542   25.0420  -10.5735 C   0  0  0  0  0  0
  -19.0878   25.7399  -10.0752 C   0  0  0  0  0  0
  -21.4840   25.5733  -10.1170 O   0  0  0  0  0  0
  -22.3567   24.8024  -10.7291 C   0  0  0  0  0  0
  -23.6364   24.8090  -10.7614 N   0  0  0  0  0  0
  -22.5019   21.8669  -12.7406 C   0  0  0  0  0  0
  -21.5045   21.5006  -13.2307 O   0  0  0  0  0  0
  1  2  1  0  0  0
  2  3  1  0  0  0
  3  4  1  0  0  0
  4  5  1  0  0  0
  5  6  1  0  0  0
  6  7  1  0  0  0
  7  8  1  0  0  0
  8  9  1  0  0  0
  9 10  1  0  0  0
  9 23  1  0  0  0
 10 11  2  0  0  0
 10 12  1  0  0  0
 12 13  1  0  0  0
 12 14  1  0  0  0
 14 15  1  0  0  0
 14 22  1  0  0  0
 15 16  1  0  0  0
 15 23  1  0  0  0
 16 17  1  0  0  0
 17 18  1  0  0  0
 18 19  1  0  0  0
 18 20  1  0  0  0
 20 21  1  0  0  0
 21 16  1  0  0  0
 21 22  1  0  0  0
 23 24  2  0  0  0
M  END
>  <CHROM.0>
-178.90370998,-70.61258635,110.48812864,64.69314725,-31.07560878,-57.22022221
-156.78850728,-163.24380932

>  <CHROM.1>
-55.51682130,-170.96818405,-176.74323454,-172.63573671,-179.87578532,-52.12979166
176.89729609,-21.47612141,22.03842457,-12.97733911,-0.80895774,0.14201007
0.65454830

>  <Name>
F2705-0009

>  <RI>
3.3012e+07

>  <Rbt.Current_Directory>
/home/adria/Escritorio/rDock_CMTR_LC/2pxcA_model/inputs_sah

>  <Rbt.Executable>
rbdock ($Id: //depot/dev/client3/rdock/2013.1/src/exe/rbdock.cxx#4 $)

>  <Rbt.Library>
libRbt.so (2013.1, Build901 2013/11/27)

>  <Rbt.Parameter_File>
/home/adria/Escritorio/rDock_2013.1_src/data/scripts/dock.prm

>  <Rbt.Receptor>
sah_rdock.prm

>  <SCORE>
-175.785

>  <SCORE.INTER>
-8.31942

>  <SCORE.INTER.CONST>
1

>  <SCORE.INTER.POLAR>
-0.87178

>  <SCORE.INTER.REPUL>
0.0695215

>  <SCORE.INTER.ROT>
7

>  <SCORE.INTER.VDW>
-18.103

>  <SCORE.INTER.norm>
-0.346642

>  <SCORE.INTRA>
-160.288

>  <SCORE.INTRA.DIHEDRAL>
-2.24394

>  <SCORE.INTRA.DIHEDRAL.0>
4.10568

>  <SCORE.INTRA.POLAR>
0

>  <SCORE.INTRA.POLAR.0>
0

>  <SCORE.INTRA.REPUL>
0

>  <SCORE.INTRA.REPUL.0>
0

>  <SCORE.INTRA.VDW>
-159.166

>  <SCORE.INTRA.VDW.0>
158.45

>  <SCORE.INTRA.norm>
-6.67867

>  <SCORE.RESTR>
0

>  <SCORE.RESTR.CAVITY>
0

>  <SCORE.RESTR.norm>
0

>  <SCORE.SYSTEM>
-7.17722

>  <SCORE.SYSTEM.CONST>
0

>  <SCORE.SYSTEM.DIHEDRAL>
9.02615

>  <SCORE.SYSTEM.POLAR>
-4.59411

>  <SCORE.SYSTEM.REPUL>
0.0339964

>  <SCORE.SYSTEM.VDW>
3.7597

>  <SCORE.SYSTEM.norm>
-0.299051

>  <SCORE.heavy>
24

>  <SCORE.norm>
-7.32436

$$$$
F2705-0009
  rDOCK(R)          3D
libRbt.so/2013.1/901 2013/11/27
 24 26  0  0  0  0  0  0  0  0999 V2000
  -25.6032   21.8708  -10.1140 C   0  0  0  0  0  0
  -25.6360   23.5892  -10.5183 C   0  0  0  0  0  0
  -25.0698   24.5346  -12.1794 C   0  0  0  0  0  0
  -23.7273   24.4376  -12.7840 C   0  0  0  0  0  0
  -23.0356   24.8844  -11.5636 C   0  0  0  0  0  0
  -21.4308   24.8105  -11.7916 C   0  0  0  0  0  0
  -20.5456   23.3423  -12.3326 C   0  0  0  0  0  0
  -20.7261   22.4205  -13.9774 C   0  0  0  0  0  0
  -20.1073   20.7585  -14.4566 N   0  3  0  0  0  0
  -20.5555   19.2618  -13.9757 C   0  0  0  0  0  0
  -21.4486   18.8623  -13.2030 O   0  0  0  0  0  0
  -19.9024   18.1563  -14.2886 N   0  3  0  0  0  0
  -20.4982   16.8506  -13.8925 C   0  0  0  0  0  0
  -18.7912   18.3203  -14.9805 C   0  0  0  0  0  0
  -18.3011   19.5803  -15.2642 C   0  0  0  0  0  0
  -17.2255   19.2624  -15.9524 N   0  0  0  0  0  0
  -16.1739   19.8064  -16.6054 C   0  0  0  0  0  0
  -15.5689   18.7393  -17.1381 C   0  0  0  0  0  0
  -14.3741   18.5996  -17.9436 C   0  0  0  0  0  0
  -16.2102   17.5138  -16.8383 O   0  0  0  0  0  0
  -17.2155   17.9098  -16.0880 C   0  0  0  0  0  0
  -18.1313   17.2659  -15.4671 N   0  0  0  0  0  0
  -18.8099   20.8929  -14.9730 C   0  0  0  0  0  0
  -18.2218   21.8967  -15.0986 O   0  0  0  0  0  0
  1  2  1  0  0  0
  2  3  1  0  0  0
  3  4  1  0  0  0
  4  5  1  0  0  0
  5  6  1  0  0  0
  6  7  1  0  0  0
  7  8  1  0  0  0
  8  9  1  0  0  0
  9 10  1  0  0  0
  9 23  1  0  0  0
 10 11  2  0  0  0
 10 12  1  0  0  0
 12 13  1  0  0  0
 12 14  1  0  0  0
 14 15  1  0  0  0
 14 22  1  0  0  0
 15 16  1  0  0  0
 15 23  1  0  0  0
 16 17  1  0  0  0
 17 18  1  0  0  0
 18 19  1  0  0  0
 18 20  1  0  0  0
 20 21  1  0  0  0
 21 16  1  0  0  0
 21 22  1  0  0  0
 23 24  2  0  0  0
M  END
>  <CHROM.0>
-175.72953413,-73.11966234,-44.82292205,64.17956750,167.96906068,-177.11514307
82.02787008,-156.20578359

>  <CHROM.1>
-55.50945001,-56.58249620,175.78863946,-54.10070434,62.92339359,-166.71719474
69.63779988,-19.89981213,20.56146555,-14.21555111,2.56500239,0.55433221,0.06461025

>  <Name>
F2705-0009

>  <RI>
3.3012e+07

>  <Rbt.Current_Directory>
/home/adria/Escritorio/rDock_CMTR_LC/2pxcA_model/inputs_sah

>  <Rbt.Executable>
rbdock ($Id: //depot/dev/client3/rdock/2013.1/src/exe/rbdock.cxx#4 $)

>  <Rbt.Library>
libRbt.so (2013.1, Build901 2013/11/27)

>  <Rbt.Parameter_File>
/home/adria/Escritorio/rDock_2013.1_src/data/scripts/dock.prm

>  <Rbt.Receptor>
sah_rdock.prm

>  <SCORE>
-167.617

>  <SCORE.INTER>
-5.46326

>  <SCORE.INTER.CONST>
1

>  <SCORE.INTER.POLAR>
0

>  <SCORE.INTER.REPUL>
0.00113598

>  <SCORE.INTER.ROT>
7

>  <SCORE.INTER.VDW>
-17.8689

>  <SCORE.INTER.norm>
-0.227636

>  <SCORE.INTRA>
-160.129

>  <SCORE.INTRA.DIHEDRAL>
-2.4482

>  <SCORE.INTRA.DIHEDRAL.0>
4.10568

>  <SCORE.INTRA.POLAR>
0

>  <SCORE.INTRA.POLAR.0>
0

>  <SCORE.INTRA.REPUL>
0

>  <SCORE.INTRA.REPUL.0>
0

>  <SCORE.INTRA.VDW>
-158.905

>  <SCORE.INTRA.VDW.0>
158.45

>  <SCORE.INTRA.norm>
-6.67205

>  <SCORE.RESTR>
0

>  <SCORE.RESTR.CAVITY>
0

>  <SCORE.RESTR.norm>
0

>  <SCORE.SYSTEM>
-2.02429

>  <SCORE.SYSTEM.CONST>
0

>  <SCORE.SYSTEM.DIHEDRAL>
4.09469

>  <SCORE.SYSTEM.POLAR>
-3.85859

>  <SCORE.SYSTEM.REPUL>
0.0387485

>  <SCORE.SYSTEM.VDW>
8.85381

>  <SCORE.SYSTEM.norm>
-0.0843456

>  <SCORE.heavy>
24

>  <SCORE.norm>
-6.98403

$$$$
F2705-0009
  rDOCK(R)          3D
libRbt.so/2013.1/901 2013/11/27
 24 26  0  0  0  0  0  0  0  0999 V2000
  -25.4539   22.3357  -13.5140 C   0  0  0  0  0  0
  -25.0843   23.5601  -12.2969 C   0  0  0  0  0  0
  -23.3286   24.2005  -11.6032 C   0  0  0  0  0  0
  -22.3574   24.9930  -12.3815 C   0  0  0  0  0  0
  -22.1480   23.9365  -13.3853 C   0  0  0  0  0  0
  -20.9269   22.9766  -12.9163 C   0  0  0  0  0  0
  -20.1807   21.7031  -13.9426 C   0  0  0  0  0  0
  -18.7409   20.5545  -13.5007 C   0  0  0  0  0  0
  -17.7958   19.4028  -14.5755 N   0  3  0  0  0  0
  -16.7199   19.6847  -15.7734 C   0  0  0  0  0  0
  -16.2354   20.7370  -16.2341 O   0  0  0  0  0  0
  -16.2404   18.7490  -16.5742 N   0  3  0  0  0  0
  -15.1676   19.1267  -17.5350 C   0  0  0  0  0  0
  -16.7331   17.5371  -16.4034 C   0  0  0  0  0  0
  -17.7585   17.2981  -15.5093 C   0  0  0  0  0  0
  -17.9069   16.0001  -15.6664 N   0  0  0  0  0  0
  -18.6354   14.9466  -15.2335 C   0  0  0  0  0  0
  -18.0597   13.9107  -15.8532 C   0  0  0  0  0  0
  -18.3507   12.4926  -15.8525 C   0  0  0  0  0  0
  -16.9724   14.2771  -16.6818 O   0  0  0  0  0  0
  -16.9456   15.5837  -16.5328 C   0  0  0  0  0  0
  -16.2187   16.4951  -17.0618 N   0  0  0  0  0  0
  -18.4558   18.1651  -14.5988 C   0  0  0  0  0  0
  -19.4352   17.8984  -14.0167 O   0  0  0  0  0  0
  1  2  1  0  0  0
  2  3  1  0  0  0
  3  4  1  0  0  0
  4  5  1  0  0  0
  5  6  1  0  0  0
  6  7  1  0  0  0
  7  8  1  0  0  0
  8  9  1  0  0  0
  9 10  1  0  0  0
  9 23  1  0  0  0
 10 11  2  0  0  0
 10 12  1  0  0  0
 12 13  1  0  0  0
 12 14  1  0  0  0
 14 15  1  0  0  0
 14 22  1  0  0  0
 15 16  1  0  0  0
 15 23  1  0  0  0
 16 17  1  0  0  0
 17 18  1  0  0  0
 18 19  1  0  0  0
 18 20  1  0  0  0
 20 21  1  0  0  0
 21 16  1  0  0  0
 21 22  1  0  0  0
 23 24  2  0  0  0
M  END
>  <CHROM.0>
-176.63963425,-74.32766874,71.14341187,-59.02955256,168.31416758,-177.14199626
-36.02386952,-166.58714231

>  <CHROM.1>
69.32791271,-62.32163778,-90.15105159,-171.02133463,178.94642056,-170.76302140
70.52728374,-19.01102475,19.02655282,-14.90370507,2.23353508,0.40978981,0.12213556

>  <Name>
F2705-0009

>  <RI>
3.3012e+07

>  <Rbt.Current_Directory>
/home/adria/Escritorio/rDock_CMTR_LC/2pxcA_model/inputs_sah

>  <Rbt.Executable>
rbdock ($Id: //depot/dev/client3/rdock/2013.1/src/exe/rbdock.cxx#4 $)

>  <Rbt.Library>
libRbt.so (2013.1, Build901 2013/11/27)

>  <Rbt.Parameter_File>
/home/adria/Escritorio/rDock_2013.1_src/data/scripts/dock.prm

>  <Rbt.Receptor>
sah_rdock.prm

>  <SCORE>
-167.036

>  <SCORE.INTER>
-7.10844

>  <SCORE.INTER.CONST>
1

>  <SCORE.INTER.POLAR>
0

>  <SCORE.INTER.REPUL>
0

>  <SCORE.INTER.ROT>
7

>  <SCORE.INTER.VDW>
-19.5084

>  <SCORE.INTER.norm>
-0.296185

>  <SCORE.INTRA>
-157.693

>  <SCORE.INTRA.DIHEDRAL>
0.62703

>  <SCORE.INTRA.DIHEDRAL.0>
4.10568

>  <SCORE.INTRA.POLAR>
0

>  <SCORE.INTRA.POLAR.0>
0

>  <SCORE.INTRA.REPUL>
0

>  <SCORE.INTRA.REPUL.0>
0

>  <SCORE.INTRA.VDW>
-158.007

>  <SCORE.INTRA.VDW.0>
158.45

>  <SCORE.INTRA.norm>
-6.57056

>  <SCORE.RESTR>
0

>  <SCORE.RESTR.CAVITY>
0

>  <SCORE.RESTR.norm>
0

>  <SCORE.SYSTEM>
-2.23457

>  <SCORE.SYSTEM.CONST>
0

>  <SCORE.SYSTEM.DIHEDRAL>
3.4977

>  <SCORE.SYSTEM.POLAR>
-3.95009

>  <SCORE.SYSTEM.REPUL>
0.0408198

>  <SCORE.SYSTEM.VDW>
9.2428

>  <SCORE.SYSTEM.norm>
-0.0931072

>  <SCORE.heavy>
24

>  <SCORE.norm>
-6.95985

$$$$
F2705-0009
  rDOCK(R)          3D
libRbt.so/2013.1/901 2013/11/27
 24 26  0  0  0  0  0  0  0  0999 V2000
  -18.0538   14.9974  -18.1379 C   0  0  0  0  0  0
  -16.5789   14.9270  -19.1059 C   0  0  0  0  0  0
  -14.8262   15.8429  -18.8548 C   0  0  0  0  0  0
  -14.6366   17.3062  -18.8538 C   0  0  0  0  0  0
  -15.3702   17.5011  -17.5922 C   0  0  0  0  0  0
  -15.4817   19.0871  -17.2688 C   0  0  0  0  0  0
  -16.4771   19.7893  -15.9466 C   0  0  0  0  0  0
  -18.3295   19.5454  -15.6359 C   0  0  0  0  0  0
  -19.3108   19.8759  -14.1184 N   0  3  0  0  0  0
  -20.2185   18.8871  -13.1854 C   0  0  0  0  0  0
  -20.4436   17.6619  -13.2348 O   0  0  0  0  0  0
  -21.0052   19.3052  -12.2093 N   0  3  0  0  0  0
  -21.6720   18.2835  -11.3560 C   0  0  0  0  0  0
  -21.0819   20.6128  -12.0516 C   0  0  0  0  0  0
  -20.4538   21.4796  -12.9248 C   0  0  0  0  0  0
  -20.7875   22.6336  -12.3878 N   0  0  0  0  0  0
  -20.6401   23.9686  -12.5440 C   0  0  0  0  0  0
  -21.2426   24.4645  -11.4580 C   0  0  0  0  0  0
  -21.4665   25.8206  -11.0034 C   0  0  0  0  0  0
  -21.7794   23.4725  -10.6030 O   0  0  0  0  0  0
  -21.4778   22.3662  -11.2477 C   0  0  0  0  0  0
  -21.7353   21.1349  -11.0103 N   0  0  0  0  0  0
  -19.6137   21.2447  -14.0675 C   0  0  0  0  0  0
  -19.2824   22.0505  -14.8486 O   0  0  0  0  0  0
  1  2  1  0  0  0
  2  3  1  0  0  0
  3  4  1  0  0  0
  4  5  1  0  0  0
  5  6  1  0  0  0
  6  7  1  0  0  0
  7  8  1  0  0  0
  8  9  1  0  0  0
  9 10  1  0  0  0
  9 23  1  0  0  0
 10 11  2  0  0  0
 10 12  1  0  0  0
 12 13  1  0  0  0
 12 14  1  0  0  0
 14 15  1  0  0  0
 14 22  1  0  0  0
 15 16  1  0  0  0
 15 23  1  0  0  0
 16 17  1  0  0  0
 17 18  1  0  0  0
 18 19  1  0  0  0
 18 20  1  0  0  0
 20 21  1  0  0  0
 21 16  1  0  0  0
 21 22  1  0  0  0
 23 24  2  0  0  0
M  END
>  <CHROM.0>
-178.93538983,-72.61782340,-45.07293460,67.34609217,-30.83010966,64.03348816
-156.50504941,-163.21960855

>  <CHROM.1>
-61.35523190,67.96044910,-176.06821555,171.60056872,-55.14279240,163.20811014
-120.64212471,-19.25080647,20.08220284,-14.15739867,0.78992998,-0.77209002
-2.93322612

>  <Name>
F2705-0009

>  <RI>
3.3012e+07

>  <Rbt.Current_Directory>
/home/adria/Escritorio/rDock_CMTR_LC/2pxcA_model/inputs_sah

>  <Rbt.Executable>
rbdock ($Id: //depot/dev/client3/rdock/2013.1/src/exe/rbdock.cxx#4 $)

>  <Rbt.Library>
libRbt.so (2013.1, Build901 2013/11/27)

>  <Rbt.Parameter_File>
/home/adria/Escritorio/rDock_2013.1_src/data/scripts/dock.prm

>  <Rbt.Receptor>
sah_rdock.prm

>  <SCORE>
-176.568

>  <SCORE.INTER>
-9.65023

>  <SCORE.INTER.CONST>
1

>  <SCORE.INTER.POLAR>
0

>  <SCORE.INTER.REPUL>
0

>  <SCORE.INTER.ROT>
7

>  <SCORE.INTER.VDW>
-22.0502

>  <SCORE.INTER.norm>
-0.402093

>  <SCORE.INTRA>
-159.615

>  <SCORE.INTRA.DIHEDRAL>
-0.849399

>  <SCORE.INTRA.DIHEDRAL.0>
4.10568

>  <SCORE.INTRA.POLAR>
0

>  <SCORE.INTRA.POLAR.0>
0

>  <SCORE.INTRA.REPUL>
0

>  <SCORE.INTRA.REPUL.0>
0

>  <SCORE.INTRA.VDW>
-159.19

>  <SCORE.INTRA.VDW.0>
158.45

>  <SCORE.INTRA.norm>
-6.65061

>  <SCORE.RESTR>
0

>  <SCORE.RESTR.CAVITY>
0

>  <SCORE.RESTR.norm>
0

>  <SCORE.SYSTEM>
-7.3026

>  <SCORE.SYSTEM.CONST>
0

>  <SCORE.SYSTEM.DIHEDRAL>
6.63107

>  <SCORE.SYSTEM.POLAR>
-4.04201

>  <SCORE.SYSTEM.REPUL>
0.0378459

>  <SCORE.SYSTEM.VDW>
2.93548

>  <SCORE.SYSTEM.norm>
-0.304275

>  <SCORE.heavy>
24

>  <SCORE.norm>
-7.35698

$$$$
F2705-0009
  rDOCK(R)          3D
libRbt.so/2013.1/901 2013/11/27
 24 26  0  0  0  0  0  0  0  0999 V2000
  -18.7273   19.6814  -17.5843 C   0  0  0  0  0  0
  -20.1806   19.2882  -16.6620 C   0  0  0  0  0  0
  -22.0292   18.8741  -17.2823 C   0  0  0  0  0  0
  -23.2031   18.7493  -16.3971 C   0  0  0  0  0  0
  -22.7064   17.5267  -15.7443 C   0  0  0  0  0  0
  -23.6057   17.2088  -14.4317 C   0  0  0  0  0  0
  -23.7460   18.2948  -13.0058 C   0  0  0  0  0  0
  -24.3464   20.0908  -12.9715 C   0  0  0  0  0  0
  -24.0839   21.3838  -11.6933 N   0  3  0  0  0  0
  -25.1355   22.1501  -10.7038 C   0  0  0  0  0  0
  -26.3642   22.0285  -10.5311 O   0  0  0  0  0  0
  -24.8189   23.1837   -9.9435 N   0  3  0  0  0  0
  -25.8431   23.6987   -8.9934 C   0  0  0  0  0  0
  -23.5845   23.6326  -10.0669 C   0  0  0  0  0  0
  -22.7210   23.1095  -11.0097 C   0  0  0  0  0  0
  -21.6469   23.8300  -10.7670 N   0  0  0  0  0  0
  -20.3704   24.0169  -11.1717 C   0  0  0  0  0  0
  -19.9087   24.9168  -10.2967 C   0  0  0  0  0  0
  -18.6250   25.5721  -10.1611 C   0  0  0  0  0  0
  -20.8662   25.3169   -9.3344 O   0  0  0  0  0  0
  -21.9218   24.6200   -9.6954 C   0  0  0  0  0  0
  -23.1203   24.5796   -9.2474 N   0  0  0  0  0  0
  -22.8756   22.0438  -11.9621 C   0  0  0  0  0  0
  -22.1424   21.8021  -12.8415 O   0  0  0  0  0  0
  1  2  1  0  0  0
  2  3  1  0  0  0
  3  4  1  0  0  0
  4  5  1  0  0  0
  5  6  1  0  0  0
  6  7  1  0  0  0
  7  8  1  0  0  0
  8  9  1  0  0  0
  9 10  1  0  0  0
  9 23  1  0  0  0
 10 11  2  0  0  0
 10 12  1  0  0  0
 12 13  1  0  0  0
 12 14  1  0  0  0
 14 15  1  0  0  0
 14 22  1  0  0  0
 15 16  1  0  0  0
 15 23  1  0  0  0
 16 17  1  0  0  0
 17 18  1  0  0  0
 18 19  1  0  0  0
 18 20  1  0  0  0
 20 21  1  0  0  0
 21 16  1  0  0  0
 21 22  1  0  0  0
 23 24  2  0  0  0
M  END
>  <CHROM.0>
-63.73899615,-72.79289707,-11.82071592,60.76758172,-29.75099488,61.33553164
-156.03745797,-163.93969638

>  <CHROM.1>
-170.80847098,-67.28212403,168.13067042,-61.90927420,58.34567829,-160.89122793
-114.50064315,-22.59241303,21.90125107,-12.19896903,-1.51361817,0.40440148
0.80383559

>  <Name>
F2705-0009

>  <RI>
3.3012e+07

>  <Rbt.Current_Directory>
/home/adria/Escritorio/rDock_CMTR_LC/2pxcA_model/inputs_sah

>  <Rbt.Executable>
rbdock ($Id: //depot/dev/client3/rdock/2013.1/src/exe/rbdock.cxx#4 $)

>  <Rbt.Library>
libRbt.so (2013.1, Build901 2013/11/27)

>  <Rbt.Parameter_File>
/home/adria/Escritorio/rDock_2013.1_src/data/scripts/dock.prm

>  <Rbt.Receptor>
sah_rdock.prm

>  <SCORE>
-172.595

>  <SCORE.INTER>
-5.83688

>  <SCORE.INTER.CONST>
1

>  <SCORE.INTER.POLAR>
0

>  <SCORE.INTER.REPUL>
0.000490105

>  <SCORE.INTER.ROT>
7

>  <SCORE.INTER.VDW>
-18.2393

>  <SCORE.INTER.norm>
-0.243203

>  <SCORE.INTRA>
-159.19

>  <SCORE.INTRA.DIHEDRAL>
0.0222706

>  <SCORE.INTRA.DIHEDRAL.0>
4.10568

>  <SCORE.INTRA.POLAR>
0

>  <SCORE.INTRA.POLAR.0>
0

>  <SCORE.INTRA.REPUL>
0

>  <SCORE.INTRA.REPUL.0>
0

>  <SCORE.INTRA.VDW>
-159.201

>  <SCORE.INTRA.VDW.0>
158.45

>  <SCORE.INTRA.norm>
-6.63291

>  <SCORE.RESTR>
0

>  <SCORE.RESTR.CAVITY>
0

>  <SCORE.RESTR.norm>
0

>  <SCORE.SYSTEM>
-7.56849

>  <SCORE.SYSTEM.CONST>
0

>  <SCORE.SYSTEM.DIHEDRAL>
9.37481

>  <SCORE.SYSTEM.POLAR>
-4.65293

>  <SCORE.SYSTEM.REPUL>
0.0381636

>  <SCORE.SYSTEM.VDW>
3.37325

>  <SCORE.SYSTEM.norm>
-0.315354

>  <SCORE.heavy>
24

>  <SCORE.norm>
-7.19147

$$$$
F2705-0009
  rDOCK(R)          3D
libRbt.so/2013.1/901 2013/11/27
 24 26  0  0  0  0  0  0  0  0999 V2000
  -19.4550   20.3146  -15.6299 C   0  0  0  0  0  0
  -20.1724   19.0367  -16.6146 C   0  0  0  0  0  0
  -22.0198   18.8503  -17.3397 C   0  0  0  0  0  0
  -23.2416   18.7797  -16.5155 C   0  0  0  0  0  0
  -22.8386   17.5319  -15.8460 C   0  0  0  0  0  0
  -23.7501   17.3072  -14.5227 C   0  0  0  0  0  0
  -23.8745   18.4749  -13.1615 C   0  0  0  0  0  0
  -24.5082   20.2589  -13.2191 C   0  0  0  0  0  0
  -24.2799   21.6173  -12.0036 N   0  3  0  0  0  0
  -25.3654   22.5449  -11.2078 C   0  0  0  0  0  0
  -26.6119   22.5441  -11.1858 O   0  0  0  0  0  0
  -25.0457   23.6017  -10.4814 N   0  3  0  0  0  0
  -26.1234   24.2744   -9.7049 C   0  0  0  0  0  0
  -23.7682   23.9309  -10.4749 C   0  0  0  0  0  0
  -22.8508   23.2647  -11.2641 C   0  0  0  0  0  0
  -21.7501   23.9053  -10.9333 N   0  0  0  0  0  0
  -20.4219   23.9492  -11.1828 C   0  0  0  0  0  0
  -19.9856   24.8692  -10.3159 C   0  0  0  0  0  0
  -18.6709   25.4187  -10.0599 C   0  0  0  0  0  0
  -21.0099   25.4229   -9.5113 O   0  0  0  0  0  0
  -22.0758   24.7951   -9.9585 C   0  0  0  0  0  0
  -23.3181   24.8932   -9.6654 N   0  0  0  0  0  0
  -22.9902   22.1473  -12.1579 C   0  0  0  0  0  0
  -22.1825   21.7769  -12.9192 O   0  0  0  0  0  0
  1  2  1  0  0  0
  2  3  1  0  0  0
  3  4  1  0  0  0
  4  5  1  0  0  0
  5  6  1  0  0  0
  6  7  1  0  0  0
  7  8  1  0  0  0
  8  9  1  0  0  0
  9 10  1  0  0  0
  9 23  1  0  0  0
 10 11  2  0  0  0
 10 12  1  0  0  0
 12 13  1  0  0  0
 12 14  1  0  0  0
 14 15  1  0  0  0
 14 22  1  0  0  0
 15 16  1  0  0  0
 15 23  1  0  0  0
 16 17  1  0  0  0
 17 18  1  0  0  0
 18 19  1  0  0  0
 18 20  1  0  0  0
 20 21  1  0  0  0
 21 16  1  0  0  0
 21 22  1  0  0  0
 23 24  2  0  0  0
M  END
>  <CHROM.0>
172.60179518,-73.38225131,-9.37850348,64.31459712,-30.05096796,-56.42988277
-37.06085615,-163.61602959

>  <CHROM.1>
-60.53642904,-62.53708956,164.19890156,-57.73204978,61.20888799,-162.94344898
-123.81922129,-22.74969839,22.06566098,-12.33359613,-1.56617926,0.25266915
0.75454810

>  <Name>
F2705-0009

>  <RI>
3.3012e+07

>  <Rbt.Current_Directory>
/home/adria/Escritorio/rDock_CMTR_LC/2pxcA_model/inputs_sah

>  <Rbt.Executable>
rbdock ($Id: //depot/dev/client3/rdock/2013.1/src/exe/rbdock.cxx#4 $)

>  <Rbt.Library>
libRbt.so (2013.1, Build901 2013/11/27)

>  <Rbt.Parameter_File>
/home/adria/Escritorio/rDock_2013.1_src/data/scripts/dock.prm

>  <Rbt.Receptor>
sah_rdock.prm

>  <SCORE>
-174.682

>  <SCORE.INTER>
-8.14916

>  <SCORE.INTER.CONST>
1

>  <SCORE.INTER.POLAR>
-0.849835

>  <SCORE.INTER.REPUL>
0

>  <SCORE.INTER.ROT>
7

>  <SCORE.INTER.VDW>
-17.6597

>  <SCORE.INTER.norm>
-0.339548

>  <SCORE.INTRA>
-159.647

>  <SCORE.INTRA.DIHEDRAL>
-0.595846

>  <SCORE.INTRA.DIHEDRAL.0>
4.10568

>  <SCORE.INTRA.POLAR>
0

>  <SCORE.INTRA.POLAR.0>
0

>  <SCORE.INTRA.REPUL>
0

>  <SCORE.INTRA.REPUL.0>
0

>  <SCORE.INTRA.VDW>
-159.349

>  <SCORE.INTRA.VDW.0>
158.45

>  <SCORE.INTRA.norm>
-6.65195

>  <SCORE.RESTR>
0

>  <SCORE.RESTR.CAVITY>
0

>  <SCORE.RESTR.norm>
0

>  <SCORE.SYSTEM>
-6.88569

>  <SCORE.SYSTEM.CONST>
0

>  <SCORE.SYSTEM.DIHEDRAL>
9.74712

>  <SCORE.SYSTEM.POLAR>
-4.5842

>  <SCORE.SYSTEM.REPUL>
0.039211

>  <SCORE.SYSTEM.VDW>
3.63096

>  <SCORE.SYSTEM.norm>
-0.286904

>  <SCORE.heavy>
24

>  <SCORE.norm>
-7.2784

$$$$
F2705-0009
  rDOCK(R)          3D
libRbt.so/2013.1/901 2013/11/27
 24 26  0  0  0  0  0  0  0  0999 V2000
  -17.6159   16.7479  -17.2138 C   0  0  0  0  0  0
  -18.8486   16.2312  -16.0603 C   0  0  0  0  0  0
  -19.5167   17.1160  -14.4036 C   0  0  0  0  0  0
  -20.1437   18.4510  -14.3597 C   0  0  0  0  0  0
  -21.3755   18.0050  -15.0314 C   0  0  0  0  0  0
  -22.5340   17.7470  -13.9251 C   0  0  0  0  0  0
  -23.2085   19.0139  -12.8425 C   0  0  0  0  0  0
  -23.9266   20.6962  -13.3340 C   0  0  0  0  0  0
  -23.4250   22.3799  -12.7971 N   0  3  0  0  0  0
  -24.0344   23.8528  -13.1596 C   0  0  0  0  0  0
  -25.0094   24.2095  -13.8499 O   0  0  0  0  0  0
  -23.4612   24.9952  -12.8235 N   0  3  0  0  0  0
  -24.1948   26.2602  -13.1037 C   0  0  0  0  0  0
  -22.2955   24.8969  -12.2136 C   0  0  0  0  0  0
  -21.6786   23.6737  -12.0362 C   0  0  0  0  0  0
  -20.5910   24.0516  -11.3991 N   0  0  0  0  0  0
  -19.4539   23.5720  -10.8466 C   0  0  0  0  0  0
  -18.9102   24.6601  -10.2908 C   0  0  0  0  0  0
  -17.6805   24.8655   -9.5550 C   0  0  0  0  0  0
  -19.6755   25.8360  -10.4768 O   0  0  0  0  0  0
  -20.6906   25.3902  -11.1848 C   0  0  0  0  0  0
  -21.6993   25.9799  -11.7079 N   0  0  0  0  0  0
  -22.0889   22.3375  -12.3719 C   0  0  0  0  0  0
  -21.4077   21.3864  -12.3430 O   0  0  0  0  0  0
  1  2  1  0  0  0
  2  3  1  0  0  0
  3  4  1  0  0  0
  4  5  1  0  0  0
  5  6  1  0  0  0
  6  7  1  0  0  0
  7  8  1  0  0  0
  8  9  1  0  0  0
  9 10  1  0  0  0
  9 23  1  0  0  0
 10 11  2  0  0  0
 10 12  1  0  0  0
 12 13  1  0  0  0
 12 14  1  0  0  0
 14 15  1  0  0  0
 14 22  1  0  0  0
 15 16  1  0  0  0
 15 23  1  0  0  0
 16 17  1  0  0  0
 17 18  1  0  0  0
 18 19  1  0  0  0
 18 20  1  0  0  0
 20 21  1  0  0  0
 21 16  1  0  0  0
 21 22  1  0  0  0
 23 24  2  0  0  0
M  END
>  <CHROM.0>
177.54670751,-72.71013488,-131.40443809,-62.25328313,-29.95049024,178.73720408
-158.48017101,-166.08712680

>  <CHROM.1>
59.67632796,70.65435632,99.61982634,62.07344138,52.79703064,-122.79537683
-178.16421749,-21.37741035,22.17304145,-12.81659646,-1.39815713,-0.27073175
0.48112125

>  <Name>
F2705-0009

>  <RI>
3.3012e+07

>  <Rbt.Current_Directory>
/home/adria/Escritorio/rDock_CMTR_LC/2pxcA_model/inputs_sah

>  <Rbt.Executable>
rbdock ($Id: //depot/dev/client3/rdock/2013.1/src/exe/rbdock.cxx#4 $)

>  <Rbt.Library>
libRbt.so (2013.1, Build901 2013/11/27)

>  <Rbt.Parameter_File>
/home/adria/Escritorio/rDock_2013.1_src/data/scripts/dock.prm

>  <Rbt.Receptor>
sah_rdock.prm

>  <SCORE>
-152.313

>  <SCORE.INTER>
9.49825

>  <SCORE.INTER.CONST>
1

>  <SCORE.INTER.POLAR>
0

>  <SCORE.INTER.REPUL>
0.119665

>  <SCORE.INTER.ROT>
7

>  <SCORE.INTER.VDW>
-3.50008

>  <SCORE.INTER.norm>
0.39576

>  <SCORE.INTRA>
-155.13

>  <SCORE.INTRA.DIHEDRAL>
7.41731

>  <SCORE.INTRA.DIHEDRAL.0>
4.10568

>  <SCORE.INTRA.POLAR>
0

>  <SCORE.INTRA.POLAR.0>
0

>  <SCORE.INTRA.REPUL>
0

>  <SCORE.INTRA.REPUL.0>
0

>  <SCORE.INTRA.VDW>
-158.838

>  <SCORE.INTRA.VDW.0>
158.45

>  <SCORE.INTRA.norm>
-6.46374

>  <SCORE.RESTR>
0

>  <SCORE.RESTR.CAVITY>
0

>  <SCORE.RESTR.norm>
0

>  <SCORE.SYSTEM>
-6.68121

>  <SCORE.SYSTEM.CONST>
0

>  <SCORE.SYSTEM.DIHEDRAL>
9.02883

>  <SCORE.SYSTEM.POLAR>
-4.47026

>  <SCORE.SYSTEM.REPUL>
0.0380138

>  <SCORE.SYSTEM.VDW>
3.81318

>  <SCORE.SYSTEM.norm>
-0.278384

>  <SCORE.heavy>
24

>  <SCORE.norm>
-6.34636

$$$$
F2705-0009
  rDOCK(R)          3D
libRbt.so/2013.1/901 2013/11/27
 24 26  0  0  0  0  0  0  0  0999 V2000
  -15.1772   19.8300  -16.4310 C   0  0  0  0  0  0
  -16.8241   19.1976  -16.5007 C   0  0  0  0  0  0
  -18.5742   20.1518  -16.4794 C   0  0  0  0  0  0
  -19.8863   19.5024  -16.6632 C   0  0  0  0  0  0
  -19.8830   18.8896  -15.3245 C   0  0  0  0  0  0
  -21.3269   18.2081  -15.0361 C   0  0  0  0  0  0
  -21.7550   17.3292  -13.5273 C   0  0  0  0  0  0
  -21.7853   18.0082  -11.7594 C   0  0  0  0  0  0
  -22.7552   19.4042  -11.0630 N   0  3  0  0  0  0
  -24.3313   19.5185  -10.6446 C   0  0  0  0  0  0
  -25.2617   18.6886  -10.6487 O   0  0  0  0  0  0
  -24.9283   20.6481  -10.3064 N   0  3  0  0  0  0
  -26.3343   20.5834   -9.8210 C   0  0  0  0  0  0
  -24.1872   21.7368  -10.3846 C   0  0  0  0  0  0
  -22.9013   21.6957  -10.8874 C   0  0  0  0  0  0
  -22.5636   22.9618  -10.7673 N   0  0  0  0  0  0
  -21.5455   23.8231  -10.9905 C   0  0  0  0  0  0
  -22.0036   24.9675  -10.4719 C   0  0  0  0  0  0
  -21.4322   26.2950  -10.3877 C   0  0  0  0  0  0
  -23.3022   24.8614   -9.9192 O   0  0  0  0  0  0
  -23.5943   23.6002  -10.1524 C   0  0  0  0  0  0
  -24.6480   22.9067   -9.9340 N   0  0  0  0  0  0
  -22.0928   20.6047  -11.3594 C   0  0  0  0  0  0
  -21.0800   20.7053  -11.9368 O   0  0  0  0  0  0
  1  2  1  0  0  0
  2  3  1  0  0  0
  3  4  1  0  0  0
  4  5  1  0  0  0
  5  6  1  0  0  0
  6  7  1  0  0  0
  7  8  1  0  0  0
  8  9  1  0  0  0
  9 10  1  0  0  0
  9 23  1  0  0  0
 10 11  2  0  0  0
 10 12  1  0  0  0
 12 13  1  0  0  0
 12 14  1  0  0  0
 14 15  1  0  0  0
 14 22  1  0  0  0
 15 16  1  0  0  0
 15 23  1  0  0  0
 16 17  1  0  0  0
 17 18  1  0  0  0
 18 19  1  0  0  0
 18 20  1  0  0  0
 20 21  1  0  0  0
 21 16  1  0  0  0
 21 22  1  0  0  0
 23 24  2  0  0  0
M  END
>  <CHROM.0>
170.79392511,-71.56204701,76.09180088,64.55035083,-30.46586932,179.51558426
80.79779655,-53.64638799

>  <CHROM.1>
174.34595242,73.71674689,172.13019523,179.20149875,60.90052670,58.86456771
76.15520503,-21.99049743,21.01052020,-12.15316699,-0.66558382,0.61654601
0.39568934

>  <Name>
F2705-0009

>  <RI>
3.3012e+07

>  <Rbt.Current_Directory>
/home/adria/Escritorio/rDock_CMTR_LC/2pxcA_model/inputs_sah

>  <Rbt.Executable>
rbdock ($Id: //depot/dev/client3/rdock/2013.1/src/exe/rbdock.cxx#4 $)

>  <Rbt.Library>
libRbt.so (2013.1, Build901 2013/11/27)

>  <Rbt.Parameter_File>
/home/adria/Escritorio/rDock_2013.1_src/data/scripts/dock.prm

>  <Rbt.Receptor>
sah_rdock.prm

>  <SCORE>
-171.106

>  <SCORE.INTER>
-5.57314

>  <SCORE.INTER.CONST>
1

>  <SCORE.INTER.POLAR>
-0.87178

>  <SCORE.INTER.REPUL>
0.114386

>  <SCORE.INTER.ROT>
7

>  <SCORE.INTER.VDW>
-15.581

>  <SCORE.INTER.norm>
-0.232214

>  <SCORE.INTRA>
-160.612

>  <SCORE.INTRA.DIHEDRAL>
-2.3911

>  <SCORE.INTRA.DIHEDRAL.0>
4.10568

>  <SCORE.INTRA.POLAR>
0

>  <SCORE.INTRA.POLAR.0>
0

>  <SCORE.INTRA.REPUL>
0

>  <SCORE.INTRA.REPUL.0>
0

>  <SCORE.INTRA.VDW>
-159.416

>  <SCORE.INTRA.VDW.0>
158.45

>  <SCORE.INTRA.norm>
-6.69215

>  <SCORE.RESTR>
0

>  <SCORE.RESTR.CAVITY>
0

>  <SCORE.RESTR.norm>
0

>  <SCORE.SYSTEM>
-4.92096

>  <SCORE.SYSTEM.CONST>
0

>  <SCORE.SYSTEM.DIHEDRAL>
9.34366

>  <SCORE.SYSTEM.POLAR>
-3.5774

>  <SCORE.SYSTEM.REPUL>
0.0382988

>  <SCORE.SYSTEM.VDW>
2.37887

>  <SCORE.SYSTEM.norm>
-0.20504

>  <SCORE.heavy>
24

>  <SCORE.norm>
-7.1294

$$$$
F2705-0009
  rDOCK(R)          3D
libRbt.so/2013.1/901 2013/11/27
 24 26  0  0  0  0  0  0  0  0999 V2000
  -17.5612   20.1418  -16.1368 C   0  0  0  0  0  0
  -18.8252   19.3198  -17.0556 C   0  0  0  0  0  0
  -20.4050   18.2780  -16.4290 C   0  0  0  0  0  0
  -20.3349   17.0940  -15.5513 C   0  0  0  0  0  0
  -19.9155   17.8688  -14.3717 C   0  0  0  0  0  0
  -21.2203   18.2735  -13.4963 C   0  0  0  0  0  0
  -22.6513   19.1468  -14.1455 C   0  0  0  0  0  0
  -24.0358   19.9914  -13.1670 C   0  0  0  0  0  0
  -23.9501   21.4366  -12.0361 N   0  3  0  0  0  0
  -25.1271   22.3521  -11.3665 C   0  0  0  0  0  0
  -26.3711   22.2834  -11.4134 O   0  0  0  0  0  0
  -24.9060   23.4701  -10.6972 N   0  3  0  0  0  0
  -26.0609   24.1308  -10.0291 C   0  0  0  0  0  0
  -23.6498   23.8695  -10.6426 C   0  0  0  0  0  0
  -22.6543   23.2055  -11.3327 C   0  0  0  0  0  0
  -21.6096   23.9265  -10.9859 N   0  0  0  0  0  0
  -20.2732   24.0280  -11.1642 C   0  0  0  0  0  0
  -19.9369   25.0253  -10.3391 C   0  0  0  0  0  0
  -18.6698   25.6625  -10.0490 C   0  0  0  0  0  0
  -21.0340   25.5723   -9.6320 O   0  0  0  0  0  0
  -22.0378   24.8583  -10.0936 C   0  0  0  0  0  0
  -23.2986   24.9061   -9.8769 N   0  0  0  0  0  0
  -22.6828   22.0264  -12.1547 C   0  0  0  0  0  0
  -21.8136   21.6528  -12.8432 O   0  0  0  0  0  0
  1  2  1  0  0  0
  2  3  1  0  0  0
  3  4  1  0  0  0
  4  5  1  0  0  0
  5  6  1  0  0  0
  6  7  1  0  0  0
  7  8  1  0  0  0
  8  9  1  0  0  0
  9 10  1  0  0  0
  9 23  1  0  0  0
 10 11  2  0  0  0
 10 12  1  0  0  0
 12 13  1  0  0  0
 12 14  1  0  0  0
 14 15  1  0  0  0
 14 22  1  0  0  0
 15 16  1  0  0  0
 15 23  1  0  0  0
 16 17  1  0  0  0
 17 18  1  0  0  0
 18 19  1  0  0  0
 18 20  1  0  0  0
 20 21  1  0  0  0
 21 16  1  0  0  0
 21 22  1  0  0  0
 23 24  2  0  0  0
M  END
>  <CHROM.0>
175.93919263,65.63260304,-48.14994998,65.89121579,168.87110632,-58.57292217
-156.21410170,-160.58928678

>  <CHROM.1>
-57.38550850,69.48537998,93.65623517,-54.60141428,-165.53270682,64.23743432
168.44099321,-22.02640652,22.02452936,-12.29948791,-1.19321277,0.22272193
0.64279716

>  <Name>
F2705-0009

>  <RI>
3.3012e+07

>  <Rbt.Current_Directory>
/home/adria/Escritorio/rDock_CMTR_LC/2pxcA_model/inputs_sah

>  <Rbt.Executable>
rbdock ($Id: //depot/dev/client3/rdock/2013.1/src/exe/rbdock.cxx#4 $)

>  <Rbt.Library>
libRbt.so (2013.1, Build901 2013/11/27)

>  <Rbt.Parameter_File>
/home/adria/Escritorio/rDock_2013.1_src/data/scripts/dock.prm

>  <Rbt.Receptor>
sah_rdock.prm

>  <SCORE>
-167.825

>  <SCORE.INTER>
-8.64577

>  <SCORE.INTER.CONST>
1

>  <SCORE.INTER.POLAR>
-0.868176

>  <SCORE.INTER.REPUL>
0.0196788

>  <SCORE.INTER.ROT>
7

>  <SCORE.INTER.VDW>
-18.1924

>  <SCORE.INTER.norm>
-0.360241

>  <SCORE.INTRA>
-157.22

>  <SCORE.INTRA.DIHEDRAL>
2.1826

>  <SCORE.INTRA.DIHEDRAL.0>
4.10568

>  <SCORE.INTRA.POLAR>
0

>  <SCORE.INTRA.POLAR.0>
0

>  <SCORE.INTRA.REPUL>
0

>  <SCORE.INTRA.REPUL.0>
0

>  <SCORE.INTRA.VDW>
-158.311

>  <SCORE.INTRA.VDW.0>
158.45

>  <SCORE.INTRA.norm>
-6.55082

>  <SCORE.RESTR>
0

>  <SCORE.RESTR.CAVITY>
0

>  <SCORE.RESTR.norm>
0

>  <SCORE.SYSTEM>
-1.9595

>  <SCORE.SYSTEM.CONST>
0

>  <SCORE.SYSTEM.DIHEDRAL>
3.09611

>  <SCORE.SYSTEM.POLAR>
-3.61769

>  <SCORE.SYSTEM.VDW>
8.79259

>  <SCORE.SYSTEM.norm>
-0.0816458

>  <SCORE.heavy>
24

>  <SCORE.norm>
-6.99271

$$$$
F2705-0009
  rDOCK(R)          3D
libRbt.so/2013.1/901 2013/11/27
 24 26  0  0  0  0  0  0  0  0999 V2000
  -16.0293   13.4709  -19.2808 C   0  0  0  0  0  0
  -14.6439   14.5147  -18.9515 C   0  0  0  0  0  0
  -14.5233   16.2056  -17.9027 C   0  0  0  0  0  0
  -15.3737   17.3913  -18.1216 C   0  0  0  0  0  0
  -16.5657   16.7720  -17.5189 C   0  0  0  0  0  0
  -17.8407   17.7588  -17.7008 C   0  0  0  0  0  0
  -17.8676   19.4886  -17.2117 C   0  0  0  0  0  0
  -17.6170   20.2065  -15.4770 C   0  0  0  0  0  0
  -18.7992   20.3066  -14.0745 N   0  3  0  0  0  0
  -19.5447   19.1381  -13.2080 C   0  0  0  0  0  0
  -19.4739   17.8939  -13.2441 O   0  0  0  0  0  0
  -20.5032   19.3661  -12.3271 N   0  3  0  0  0  0
  -20.9999   18.2212  -11.5150 C   0  0  0  0  0  0
  -20.8963   20.6205  -12.2156 C   0  0  0  0  0  0
  -20.3992   21.6055  -13.0468 C   0  0  0  0  0  0
  -21.0445   22.6525  -12.5791 N   0  0  0  0  0  0
  -21.1947   23.9843  -12.7583 C   0  0  0  0  0  0
  -22.0043   24.3314  -11.7521 C   0  0  0  0  0  0
  -22.5816   25.6002  -11.3613 C   0  0  0  0  0  0
  -22.3822   23.2459  -10.9264 O   0  0  0  0  0  0
  -21.7680   22.2372  -11.5058 C   0  0  0  0  0  0
  -21.7566   20.9810  -11.2597 N   0  0  0  0  0  0
  -19.4143   21.5673  -14.0933 C   0  0  0  0  0  0
  -19.1997   22.4243  -14.8607 O   0  0  0  0  0  0
  1  2  1  0  0  0
  2  3  1  0  0  0
  3  4  1  0  0  0
  4  5  1  0  0  0
  5  6  1  0  0  0
  6  7  1  0  0  0
  7  8  1  0  0  0
  8  9  1  0  0  0
  9 10  1  0  0  0
  9 23  1  0  0  0
 10 11  2  0  0  0
 10 12  1  0  0  0
 12 13  1  0  0  0
 12 14  1  0  0  0
 14 15  1  0  0  0
 14 22  1  0  0  0
 15 16  1  0  0  0
 15 23  1  0  0  0
 16 17  1  0  0  0
 17 18  1  0  0  0
 18 19  1  0  0  0
 18 20  1  0  0  0
 20 21  1  0  0  0
 21 16  1  0  0  0
 21 22  1  0  0  0
 23 24  2  0  0  0
M  END
>  <CHROM.0>
-61.66550245,-70.69742253,111.37367679,64.84872368,168.36964182,178.61607550
82.52235615,-164.96760591

>  <CHROM.1>
-53.51729739,73.79331968,-174.31873289,-52.69613000,-60.31774606,-78.81068635
62.94663325,-19.26534555,19.98142443,-14.29648284,0.53484957,-0.91884459
2.94631973

>  <Name>
F2705-0009

>  <RI>
3.3012e+07

>  <Rbt.Current_Directory>
/home/adria/Escritorio/rDock_CMTR_LC/2pxcA_model/inputs_sah

>  <Rbt.Executable>
rbdock ($Id: //depot/dev/client3/rdock/2013.1/src/exe/rbdock.cxx#4 $)

>  <Rbt.Library>
libRbt.so (2013.1, Build901 2013/11/27)

>  <Rbt.Parameter_File>
/home/adria/Escritorio/rDock_2013.1_src/data/scripts/dock.prm

>  <Rbt.Receptor>
sah_rdock.prm

>  <SCORE>
-174.706

>  <SCORE.INTER>
-12.5411

>  <SCORE.INTER.CONST>
1

>  <SCORE.INTER.POLAR>
-0.571745

>  <SCORE.INTER.REPUL>
0

>  <SCORE.INTER.ROT>
7

>  <SCORE.INTER.VDW>
-22.9972

>  <SCORE.INTER.norm>
-0.522548

>  <SCORE.INTRA>
-159.742

>  <SCORE.INTRA.DIHEDRAL>
-0.808178

>  <SCORE.INTRA.DIHEDRAL.0>
4.10568

>  <SCORE.INTRA.POLAR>
0

>  <SCORE.INTRA.POLAR.0>
0

>  <SCORE.INTRA.REPUL>
0

>  <SCORE.INTRA.REPUL.0>
0

>  <SCORE.INTRA.VDW>
-159.338

>  <SCORE.INTRA.VDW.0>
158.45

>  <SCORE.INTRA.norm>
-6.6559

>  <SCORE.RESTR>
0

>  <SCORE.RESTR.CAVITY>
0

>  <SCORE.RESTR.norm>
0

>  <SCORE.SYSTEM>
-2.4235

>  <SCORE.SYSTEM.CONST>
0

>  <SCORE.SYSTEM.DIHEDRAL>
6.18655

>  <SCORE.SYSTEM.POLAR>
-4.45534

>  <SCORE.SYSTEM.REPUL>
0.034167

>  <SCORE.SYSTEM.VDW>
9.46054

>  <SCORE.SYSTEM.norm>
-0.100979

>  <SCORE.heavy>
24

>  <SCORE.norm>
-7.27943

$$$$
F2705-0009
  rDOCK(R)          3D
libRbt.so/2013.1/901 2013/11/27
 24 26  0  0  0  0  0  0  0  0999 V2000
  -17.1950   17.0603  -18.1023 C   0  0  0  0  0  0
  -17.7300   18.3764  -17.0541 C   0  0  0  0  0  0
  -17.9056   18.4553  -15.0700 C   0  0  0  0  0  0
  -18.4388   19.6087  -14.3200 C   0  0  0  0  0  0
  -19.8125   19.4243  -14.8163 C   0  0  0  0  0  0
  -20.6823   18.6091  -13.7157 C   0  0  0  0  0  0
  -22.4702   18.4264  -13.7627 C   0  0  0  0  0  0
  -23.7745   19.7989  -13.8130 C   0  0  0  0  0  0
  -23.8859   21.3387  -12.8172 N   0  3  0  0  0  0
  -25.1522   22.3173  -12.4840 C   0  0  0  0  0  0
  -26.3619   22.2519  -12.7784 O   0  0  0  0  0  0
  -25.0449   23.4891  -11.8824 N   0  3  0  0  0  0
  -26.2954   24.2136  -11.5242 C   0  0  0  0  0  0
  -23.8169   23.8845  -11.6066 C   0  0  0  0  0  0
  -22.7181   23.1557  -12.0186 C   0  0  0  0  0  0
  -21.7488   23.8986  -11.5288 N   0  0  0  0  0  0
  -20.4020   23.9759  -11.4378 C   0  0  0  0  0  0
  -20.2166   25.0408  -10.6504 C   0  0  0  0  0  0
  -19.0200   25.6939  -10.1631 C   0  0  0  0  0  0
  -21.4212   25.6552  -10.2325 O   0  0  0  0  0  0
  -22.3270   24.9088  -10.8265 C   0  0  0  0  0  0
  -23.6040   24.9831  -10.8774 N   0  0  0  0  0  0
  -22.6072   21.9081  -12.7243 C   0  0  0  0  0  0
  -21.6253   21.4695  -13.1855 O   0  0  0  0  0  0
  1  2  1  0  0  0
  2  3  1  0  0  0
  3  4  1  0  0  0
  4  5  1  0  0  0
  5  6  1  0  0  0
  6  7  1  0  0  0
  7  8  1  0  0  0
  8  9  1  0  0  0
  9 10  1  0  0  0
  9 23  1  0  0  0
 10 11  2  0  0  0
 10 12  1  0  0  0
 12 13  1  0  0  0
 12 14  1  0  0  0
 14 15  1  0  0  0
 14 22  1  0  0  0
 15 16  1  0  0  0
 15 23  1  0  0  0
 16 17  1  0  0  0
 17 18  1  0  0  0
 18 19  1  0  0  0
 18 20  1  0  0  0
 20 21  1  0  0  0
 21 16  1  0  0  0
 21 22  1  0  0  0
 23 24  2  0  0  0
M  END
>  <CHROM.0>
-65.43681678,-74.42996140,-127.54857357,-62.71652398,-29.41653356,-60.70142560
84.11080213,-161.52300296

>  <CHROM.1>
-176.57504681,68.78702151,97.52375741,168.12674320,-56.52392057,-45.62875233
-159.25669027,-21.82783587,21.99176769,-12.82004815,-1.00952712,0.06751190
0.61509827

>  <Name>
F2705-0009

>  <RI>
3.3012e+07

>  <Rbt.Current_Directory>
/home/adria/Escritorio/rDock_CMTR_LC/2pxcA_model/inputs_sah

>  <Rbt.Executable>
rbdock ($Id: //depot/dev/client3/rdock/2013.1/src/exe/rbdock.cxx#4 $)

>  <Rbt.Library>
libRbt.so (2013.1, Build901 2013/11/27)

>  <Rbt.Parameter_File>
/home/adria/Escritorio/rDock_2013.1_src/data/scripts/dock.prm

>  <Rbt.Receptor>
sah_rdock.prm

>  <SCORE>
-168.706

>  <SCORE.INTER>
-4.11896

>  <SCORE.INTER.CONST>
1

>  <SCORE.INTER.POLAR>
0

>  <SCORE.INTER.REPUL>
0.0781212

>  <SCORE.INTER.ROT>
7

>  <SCORE.INTER.VDW>
-16.9096

>  <SCORE.INTER.norm>
-0.171623

>  <SCORE.INTRA>
-157.726

>  <SCORE.INTRA.DIHEDRAL>
2.41774

>  <SCORE.INTRA.DIHEDRAL.0>
4.10568

>  <SCORE.INTRA.POLAR>
0

>  <SCORE.INTRA.POLAR.0>
0

>  <SCORE.INTRA.REPUL>
0

>  <SCORE.INTRA.REPUL.0>
0

>  <SCORE.INTRA.VDW>
-158.934

>  <SCORE.INTRA.VDW.0>
158.45

>  <SCORE.INTRA.norm>
-6.5719

>  <SCORE.RESTR>
0

>  <SCORE.RESTR.CAVITY>
0

>  <SCORE.RESTR.norm>
0

>  <SCORE.SYSTEM>
-6.86098

>  <SCORE.SYSTEM.CONST>
0

>  <SCORE.SYSTEM.DIHEDRAL>
10.0691

>  <SCORE.SYSTEM.POLAR>
-4.58369

>  <SCORE.SYSTEM.REPUL>
0.0409885

>  <SCORE.SYSTEM.VDW>
3.48408

>  <SCORE.SYSTEM.norm>
-0.285874

>  <SCORE.heavy>
24

>  <SCORE.norm>
-7.0294

$$$$
F2705-0009
  rDOCK(R)          3D
libRbt.so/2013.1/901 2013/11/27
 24 26  0  0  0  0  0  0  0  0999 V2000
  -14.7557   13.9940  -18.7318 C   0  0  0  0  0  0
  -16.1687   14.9436  -19.1996 C   0  0  0  0  0  0
  -17.0620   16.4677  -18.2760 C   0  0  0  0  0  0
  -17.7057   16.3850  -16.9510 C   0  0  0  0  0  0
  -18.1022   17.8029  -16.9438 C   0  0  0  0  0  0
  -18.8848   18.1406  -15.5632 C   0  0  0  0  0  0
  -20.4219   17.3635  -15.0476 C   0  0  0  0  0  0
  -21.4854   17.7871  -13.5387 C   0  0  0  0  0  0
  -22.3064   19.3703  -13.0982 N   0  3  0  0  0  0
  -23.7758   19.9685  -13.4924 C   0  0  0  0  0  0
  -24.7243   19.4957  -14.1489 O   0  0  0  0  0  0
  -24.1669   21.2039  -13.2329 N   0  3  0  0  0  0
  -25.5785   21.5725  -13.5301 C   0  0  0  0  0  0
  -23.2641   21.9888  -12.6766 C   0  0  0  0  0  0
  -21.9656   21.5617  -12.4780 C   0  0  0  0  0  0
  -21.4523   22.6324  -11.9109 N   0  0  0  0  0  0
  -20.3027   23.1224  -11.3945 C   0  0  0  0  0  0
  -20.6757   24.3126  -10.9121 C   0  0  0  0  0  0
  -19.9397   25.3664  -10.2461 C   0  0  0  0  0  0
  -22.0469   24.6017  -11.1101 O   0  0  0  0  0  0
  -22.4612   23.5289  -11.7486 C   0  0  0  0  0  0
  -23.5964   23.2089  -12.2465 N   0  0  0  0  0  0
  -21.3222   20.3024  -12.7369 C   0  0  0  0  0  0
  -20.1695   20.1044  -12.7010 O   0  0  0  0  0  0
  1  2  1  0  0  0
  2  3  1  0  0  0
  3  4  1  0  0  0
  4  5  1  0  0  0
  5  6  1  0  0  0
  6  7  1  0  0  0
  7  8  1  0  0  0
  8  9  1  0  0  0
  9 10  1  0  0  0
  9 23  1  0  0  0
 10 11  2  0  0  0
 10 12  1  0  0  0
 12 13  1  0  0  0
 12 14  1  0  0  0
 14 15  1  0  0  0
 14 22  1  0  0  0
 15 16  1  0  0  0
 15 23  1  0  0  0
 16 17  1  0  0  0
 17 18  1  0  0  0
 18 19  1  0  0  0
 18 20  1  0  0  0
 20 21  1  0  0  0
 21 16  1  0  0  0
 21 22  1  0  0  0
 23 24  2  0  0  0
M  END
>  <CHROM.0>
-68.61557069,-73.53662277,-129.20555815,64.44631686,-31.09074019,62.09646039
-157.40161921,-165.49920671

>  <CHROM.1>
-62.77362641,179.81201432,-179.81681954,-61.20649943,-174.36930275,59.51593609
87.63282680,-20.91368230,20.20856278,-13.84346167,-1.04106061,0.08998222
0.63191764

>  <Name>
F2705-0009

>  <RI>
3.3012e+07

>  <Rbt.Current_Directory>
/home/adria/Escritorio/rDock_CMTR_LC/2pxcA_model/inputs_sah

>  <Rbt.Executable>
rbdock ($Id: //depot/dev/client3/rdock/2013.1/src/exe/rbdock.cxx#4 $)

>  <Rbt.Library>
libRbt.so (2013.1, Build901 2013/11/27)

>  <Rbt.Parameter_File>
/home/adria/Escritorio/rDock_2013.1_src/data/scripts/dock.prm

>  <Rbt.Receptor>
sah_rdock.prm

>  <SCORE>
-171.378

>  <SCORE.INTER>
-3.00355

>  <SCORE.INTER.CONST>
1

>  <SCORE.INTER.POLAR>
0

>  <SCORE.INTER.REPUL>
0.280692

>  <SCORE.INTER.ROT>
7

>  <SCORE.INTER.VDW>
-16.807

>  <SCORE.INTER.norm>
-0.125148

>  <SCORE.INTRA>
-161.126

>  <SCORE.INTRA.DIHEDRAL>
-3.31932

>  <SCORE.INTRA.DIHEDRAL.0>
4.10568

>  <SCORE.INTRA.POLAR>
0

>  <SCORE.INTRA.POLAR.0>
0

>  <SCORE.INTRA.REPUL>
0

>  <SCORE.INTRA.REPUL.0>
0

>  <SCORE.INTRA.VDW>
-159.466

>  <SCORE.INTRA.VDW.0>
158.45

>  <SCORE.INTRA.norm>
-6.71359

>  <SCORE.RESTR>
0

>  <SCORE.RESTR.CAVITY>
0

>  <SCORE.RESTR.norm>
0

>  <SCORE.SYSTEM>
-7.24832

>  <SCORE.SYSTEM.CONST>
0

>  <SCORE.SYSTEM.DIHEDRAL>
9.54528

>  <SCORE.SYSTEM.POLAR>
-4.57654

>  <SCORE.SYSTEM.REPUL>
0.0394797

>  <SCORE.SYSTEM.VDW>
3.34188

>  <SCORE.SYSTEM.norm>
-0.302013

>  <SCORE.heavy>
24

>  <SCORE.norm>
-7.14075

$$$$
F2705-0009
  rDOCK(R)          3D
libRbt.so/2013.1/901 2013/11/27
 24 26  0  0  0  0  0  0  0  0999 V2000
  -18.2137   12.4269  -15.7044 C   0  0  0  0  0  0
  -18.0128   13.9846  -16.5109 C   0  0  0  0  0  0
  -18.9607   15.7153  -16.2284 C   0  0  0  0  0  0
  -19.0244   16.4371  -14.9431 C   0  0  0  0  0  0
  -19.9987   17.4266  -15.4322 C   0  0  0  0  0  0
  -20.2270   18.5680  -14.3020 C   0  0  0  0  0  0
  -18.9365   19.6492  -13.6712 C   0  0  0  0  0  0
  -19.0350   20.8336  -12.1965 C   0  0  0  0  0  0
  -20.1667   22.2529  -11.9144 N   0  3  0  0  0  0
  -19.9245   23.6960  -11.1858 C   0  0  0  0  0  0
  -18.9132   24.2188  -10.6775 O   0  0  0  0  0  0
  -20.8875   24.5585  -10.9114 N   0  3  0  0  0  0
  -20.5055   25.8901  -10.3656 C   0  0  0  0  0  0
  -22.1127   24.1656  -11.2030 C   0  0  0  0  0  0
  -22.3659   22.8906  -11.6703 C   0  0  0  0  0  0
  -23.6711   22.9543  -11.8255 N   0  0  0  0  0  0
  -24.7387   22.2228  -12.2171 C   0  0  0  0  0  0
  -25.7409   23.1068  -12.1665 C   0  0  0  0  0  0
  -27.1576   22.9880  -12.4397 C   0  0  0  0  0  0
  -25.3398   24.3973  -11.7462 O   0  0  0  0  0  0
  -24.0526   24.2264  -11.5355 C   0  0  0  0  0  0
  -23.1412   25.0111  -11.0966 N   0  0  0  0  0  0
  -21.4904   21.7927  -11.9778 C   0  0  0  0  0  0
  -21.8248   20.6923  -12.1938 O   0  0  0  0  0  0
  1  2  1  0  0  0
  2  3  1  0  0  0
  3  4  1  0  0  0
  4  5  1  0  0  0
  5  6  1  0  0  0
  6  7  1  0  0  0
  7  8  1  0  0  0
  8  9  1  0  0  0
  9 10  1  0  0  0
  9 23  1  0  0  0
 10 11  2  0  0  0
 10 12  1  0  0  0
 12 13  1  0  0  0
 12 14  1  0  0  0
 14 15  1  0  0  0
 14 22  1  0  0  0
 15 16  1  0  0  0
 15 23  1  0  0  0
 16 17  1  0  0  0
 17 18  1  0  0  0
 18 19  1  0  0  0
 18 20  1  0  0  0
 20 21  1  0  0  0
 21 16  1  0  0  0
 21 22  1  0  0  0
 23 24  2  0  0  0
M  END
>  <CHROM.0>
178.99347680,-165.99071259,-44.77612817,66.31954177,-29.08089364,62.26247109
81.27600108,-47.92539674

>  <CHROM.1>
57.24529267,-171.90942952,-173.58446149,60.96886724,-170.59183250,-59.29224369
-144.48922320,-21.43320956,21.23311534,-12.67868760,1.13158025,0.10057859
-2.65370259

>  <Name>
F2705-0009

>  <RI>
3.3012e+07

>  <Rbt.Current_Directory>
/home/adria/Escritorio/rDock_CMTR_LC/2pxcA_model/inputs_sah

>  <Rbt.Executable>
rbdock ($Id: //depot/dev/client3/rdock/2013.1/src/exe/rbdock.cxx#4 $)

>  <Rbt.Library>
libRbt.so (2013.1, Build901 2013/11/27)

>  <Rbt.Parameter_File>
/home/adria/Escritorio/rDock_2013.1_src/data/scripts/dock.prm

>  <Rbt.Receptor>
sah_rdock.prm

>  <SCORE>
-170.961

>  <SCORE.INTER>
-6.7115

>  <SCORE.INTER.CONST>
1

>  <SCORE.INTER.POLAR>
-0.87178

>  <SCORE.INTER.REPUL>
0

>  <SCORE.INTER.ROT>
7

>  <SCORE.INTER.VDW>
-16.1474

>  <SCORE.INTER.norm>
-0.279646

>  <SCORE.INTRA>
-160.746

>  <SCORE.INTRA.DIHEDRAL>
-2.48619

>  <SCORE.INTRA.DIHEDRAL.0>
4.10568

>  <SCORE.INTRA.POLAR>
0

>  <SCORE.INTRA.POLAR.0>
0

>  <SCORE.INTRA.REPUL>
0

>  <SCORE.INTRA.REPUL.0>
0

>  <SCORE.INTRA.VDW>
-159.503

>  <SCORE.INTRA.VDW.0>
158.45

>  <SCORE.INTRA.norm>
-6.69774

>  <SCORE.RESTR>
0.0571372

>  <SCORE.RESTR.CAVITY>
0.0571372

>  <SCORE.RESTR.norm>
0.00238072

>  <SCORE.SYSTEM>
-3.5606

>  <SCORE.SYSTEM.CONST>
0

>  <SCORE.SYSTEM.DIHEDRAL>
9.10284

>  <SCORE.SYSTEM.POLAR>
-3.25129

>  <SCORE.SYSTEM.REPUL>
0.017061

>  <SCORE.SYSTEM.VDW>
2.85706

>  <SCORE.SYSTEM.norm>
-0.148358

>  <SCORE.heavy>
24

>  <SCORE.norm>
-7.12337

$$$$
F2705-0009
  rDOCK(R)          3D
libRbt.so/2013.1/901 2013/11/27
 24 26  0  0  0  0  0  0  0  0999 V2000
  -18.7262   20.1255  -12.9392 C   0  0  0  0  0  0
  -20.4227   20.4015  -12.5357 C   0  0  0  0  0  0
  -22.0822   19.8635  -13.5003 C   0  0  0  0  0  0
  -22.5293   18.4700  -13.6881 C   0  0  0  0  0  0
  -23.5884   18.8329  -14.6443 C   0  0  0  0  0  0
  -23.3654   18.0247  -16.0334 C   0  0  0  0  0  0
  -21.8017   17.9271  -16.9151 C   0  0  0  0  0  0
  -20.2184   17.0405  -16.3721 C   0  0  0  0  0  0
  -18.5650   17.0119  -17.1722 N   0  3  0  0  0  0
  -17.7231   15.7929  -17.8631 C   0  0  0  0  0  0
  -17.9969   14.5930  -18.0623 O   0  0  0  0  0  0
  -16.4648   15.8904  -18.2551 N   0  3  0  0  0  0
  -15.8650   14.7420  -18.9887 C   0  0  0  0  0  0
  -15.8690   17.0391  -17.9982 C   0  0  0  0  0  0
  -16.5021   18.0303  -17.2737 C   0  0  0  0  0  0
  -15.5661   18.9552  -17.2768 N   0  0  0  0  0  0
  -15.2957   20.2048  -16.8371 C   0  0  0  0  0  0
  -14.1009   20.4606  -17.3807 C   0  0  0  0  0  0
  -13.2228   21.6089  -17.3039 C   0  0  0  0  0  0
  -13.5929   19.3960  -18.1628 O   0  0  0  0  0  0
  -14.5408   18.4923  -18.0400 C   0  0  0  0  0  0
  -14.6472   17.2928  -18.4744 N   0  0  0  0  0  0
  -17.8224   18.1088  -16.7103 C   0  0  0  0  0  0
  -18.1956   18.9215  -15.9557 O   0  0  0  0  0  0
  1  2  1  0  0  0
  2  3  1  0  0  0
  3  4  1  0  0  0
  4  5  1  0  0  0
  5  6  1  0  0  0
  6  7  1  0  0  0
  7  8  1  0  0  0
  8  9  1  0  0  0
  9 10  1  0  0  0
  9 23  1  0  0  0
 10 11  2  0  0  0
 10 12  1  0  0  0
 12 13  1  0  0  0
 12 14  1  0  0  0
 14 15  1  0  0  0
 14 22  1  0  0  0
 15 16  1  0  0  0
 15 23  1  0  0  0
 16 17  1  0  0  0
 17 18  1  0  0  0
 18 19  1  0  0  0
 18 20  1  0  0  0
 20 21  1  0  0  0
 21 16  1  0  0  0
 21 22  1  0  0  0
 23 24  2  0  0  0
M  END
>  <CHROM.0>
-59.74254109,-71.54166793,-9.24842344,-142.74587015,-29.80818365,-57.55925678
80.30934196,-164.72320185

>  <CHROM.1>
66.15090415,-169.93682194,123.21228611,-48.95113831,68.01104809,-175.04457693
-114.39217409,-17.85584152,18.22493517,-16.59021790,-2.85819872,-0.34921158
-2.55263260

>  <Name>
F2705-0009

>  <RI>
3.3012e+07

>  <Rbt.Current_Directory>
/home/adria/Escritorio/rDock_CMTR_LC/2pxcA_model/inputs_sah

>  <Rbt.Executable>
rbdock ($Id: //depot/dev/client3/rdock/2013.1/src/exe/rbdock.cxx#4 $)

>  <Rbt.Library>
libRbt.so (2013.1, Build901 2013/11/27)

>  <Rbt.Parameter_File>
/home/adria/Escritorio/rDock_2013.1_src/data/scripts/dock.prm

>  <Rbt.Receptor>
sah_rdock.prm

>  <SCORE>
-169.675

>  <SCORE.INTER>
-8.65508

>  <SCORE.INTER.CONST>
1

>  <SCORE.INTER.POLAR>
-0.894427

>  <SCORE.INTER.REPUL>
0.0380582

>  <SCORE.INTER.ROT>
7

>  <SCORE.INTER.VDW>
-18.2043

>  <SCORE.INTER.norm>
-0.360629

>  <SCORE.INTRA>
-157.2

>  <SCORE.INTRA.DIHEDRAL>
5.0932

>  <SCORE.INTRA.DIHEDRAL.0>
4.10568

>  <SCORE.INTRA.POLAR>
0

>  <SCORE.INTRA.POLAR.0>
0

>  <SCORE.INTRA.REPUL>
0

>  <SCORE.INTRA.REPUL.0>
0

>  <SCORE.INTRA.VDW>
-159.747

>  <SCORE.INTRA.VDW.0>
158.45

>  <SCORE.INTRA.norm>
-6.55002

>  <SCORE.RESTR>
0

>  <SCORE.RESTR.CAVITY>
0

>  <SCORE.RESTR.norm>
0

>  <SCORE.SYSTEM>
-3.81929

>  <SCORE.SYSTEM.CONST>
0

>  <SCORE.SYSTEM.DIHEDRAL>
13.8753

>  <SCORE.SYSTEM.POLAR>
-4.4973

>  <SCORE.SYSTEM.REPUL>
0.0358279

>  <SCORE.SYSTEM.VDW>
4.35474

>  <SCORE.SYSTEM.norm>
-0.159137

>  <SCORE.heavy>
24

>  <SCORE.norm>
-7.06978

$$$$
F2705-0009
  rDOCK(R)          3D
libRbt.so/2013.1/901 2013/11/27
 24 26  0  0  0  0  0  0  0  0999 V2000
  -20.0574   13.5882  -19.8423 C   0  0  0  0  0  0
  -18.4894   13.8607  -20.6067 C   0  0  0  0  0  0
  -16.8018   12.8050  -20.5007 C   0  0  0  0  0  0
  -16.0563   12.5373  -19.2559 C   0  0  0  0  0  0
  -15.7141   13.9526  -19.0380 C   0  0  0  0  0  0
  -15.4137   14.2021  -17.4632 C   0  0  0  0  0  0
  -16.6332   14.0280  -16.1538 C   0  0  0  0  0  0
  -18.2514   14.9893  -15.9419 C   0  0  0  0  0  0
  -18.5099   16.7655  -15.5511 N   0  3  0  0  0  0
  -17.7499   18.1090  -16.0891 C   0  0  0  0  0  0
  -16.8397   18.2794  -16.9239 O   0  0  0  0  0  0
  -17.9393   19.3179  -15.5897 N   0  3  0  0  0  0
  -17.2794   20.4696  -16.2642 C   0  0  0  0  0  0
  -18.7527   19.3919  -14.5537 C   0  0  0  0  0  0
  -19.2845   18.2556  -13.9755 C   0  0  0  0  0  0
  -20.0121   18.7978  -13.0225 N   0  0  0  0  0  0
  -20.8437   18.4860  -12.0030 C   0  0  0  0  0  0
  -21.2506   19.6849  -11.5723 C   0  0  0  0  0  0
  -22.1339   20.0840  -10.4970 C   0  0  0  0  0  0
  -20.6940   20.7672  -12.2947 O   0  0  0  0  0  0
  -19.9250   20.1471  -13.1633 C   0  0  0  0  0  0
  -19.1218   20.5778  -14.0623 N   0  0  0  0  0  0
  -19.1641   16.8636  -14.3140 C   0  0  0  0  0  0
  -19.5083   15.9663  -13.6466 O   0  0  0  0  0  0
  1  2  1  0  0  0
  2  3  1  0  0  0
  3  4  1  0  0  0
  4  5  1  0  0  0
  5  6  1  0  0  0
  6  7  1  0  0  0
  7  8  1  0  0  0
  8  9  1  0  0  0
  9 10  1  0  0  0
  9 23  1  0  0  0
 10 11  2  0  0  0
 10 12  1  0  0  0
 12 13  1  0  0  0
 12 14  1  0  0  0
 14 15  1  0  0  0
 14 22  1  0  0  0
 15 16  1  0  0  0
 15 23  1  0  0  0
 16 17  1  0  0  0
 17 18  1  0  0  0
 18 19  1  0  0  0
 18 20  1  0  0  0
 20 21  1  0  0  0
 21 16  1  0  0  0
 21 22  1  0  0  0
 23 24  2  0  0  0
M  END
>  <CHROM.0>
-177.34806695,-73.83561603,75.36521750,63.19557123,-30.64765841,-51.44832654
-156.96085028,-162.81912806

>  <CHROM.1>
-60.10621567,-65.29072807,156.43566973,-64.66070270,-60.77802768,-67.73457794
41.46474508,-18.60657764,17.16150330,-15.52245893,1.04424240,-0.79838875
-2.71344037

>  <Name>
F2705-0009

>  <RI>
3.3012e+07

>  <Rbt.Current_Directory>
/home/adria/Escritorio/rDock_CMTR_LC/2pxcA_model/inputs_sah

>  <Rbt.Executable>
rbdock ($Id: //depot/dev/client3/rdock/2013.1/src/exe/rbdock.cxx#4 $)

>  <Rbt.Library>
libRbt.so (2013.1, Build901 2013/11/27)

>  <Rbt.Parameter_File>
/home/adria/Escritorio/rDock_2013.1_src/data/scripts/dock.prm

>  <Rbt.Receptor>
sah_rdock.prm

>  <SCORE>
-174.648

>  <SCORE.INTER>
-7.69278

>  <SCORE.INTER.CONST>
1

>  <SCORE.INTER.POLAR>
-0.280433

>  <SCORE.INTER.REPUL>
0

>  <SCORE.INTER.ROT>
7

>  <SCORE.INTER.VDW>
-19.1393

>  <SCORE.INTER.norm>
-0.320533

>  <SCORE.INTRA>
-159.53

>  <SCORE.INTRA.DIHEDRAL>
-0.172076

>  <SCORE.INTRA.DIHEDRAL.0>
4.10568

>  <SCORE.INTRA.POLAR>
0

>  <SCORE.INTRA.POLAR.0>
0

>  <SCORE.INTRA.REPUL>
0

>  <SCORE.INTRA.REPUL.0>
0

>  <SCORE.INTRA.VDW>
-159.444

>  <SCORE.INTRA.VDW.0>
158.45

>  <SCORE.INTRA.norm>
-6.6471

>  <SCORE.RESTR>
0.017788

>  <SCORE.RESTR.CAVITY>
0.017788

>  <SCORE.RESTR.norm>
0.000741167

>  <SCORE.SYSTEM>
-7.44287

>  <SCORE.SYSTEM.CONST>
0

>  <SCORE.SYSTEM.DIHEDRAL>
6.77379

>  <SCORE.SYSTEM.POLAR>
-4.11874

>  <SCORE.SYSTEM.REPUL>
0.0399935

>  <SCORE.SYSTEM.VDW>
2.97398

>  <SCORE.SYSTEM.norm>
-0.31012

>  <SCORE.heavy>
24

>  <SCORE.norm>
-7.27701

$$$$
F2705-0009
  rDOCK(R)          3D
libRbt.so/2013.1/901 2013/11/27
 24 26  0  0  0  0  0  0  0  0999 V2000
  -25.3177   20.5796   -9.6038 C   0  0  0  0  0  0
  -23.7145   19.9075   -9.2950 C   0  0  0  0  0  0
  -21.9957   20.1711  -10.2697 C   0  0  0  0  0  0
  -21.7908   19.8839  -11.7024 C   0  0  0  0  0  0
  -21.8363   18.4238  -11.5191 C   0  0  0  0  0  0
  -21.5627   17.6898  -12.9400 C   0  0  0  0  0  0
  -20.0372   17.8292  -13.8811 C   0  0  0  0  0  0
  -19.6204   17.0155  -15.5399 C   0  0  0  0  0  0
  -18.0111   16.9218  -16.4210 N   0  3  0  0  0  0
  -16.8542   18.0484  -16.6747 C   0  0  0  0  0  0
  -16.7441   19.2342  -16.3058 O   0  0  0  0  0  0
  -15.8159   17.8774  -17.4742 N   0  3  0  0  0  0
  -14.7710   18.9376  -17.5077 C   0  0  0  0  0  0
  -15.7814   16.7374  -18.1373 C   0  0  0  0  0  0
  -16.8241   15.8341  -18.0674 C   0  0  0  0  0  0
  -16.3617   14.8834  -18.8510 N   0  0  0  0  0  0
  -16.6730   13.6692  -19.3580 C   0  0  0  0  0  0
  -15.5628   13.3293  -20.0217 C   0  0  0  0  0  0
  -15.2188   12.1651  -20.8103 C   0  0  0  0  0  0
  -14.5395   14.3047  -19.9546 O   0  0  0  0  0  0
  -15.1076   15.2451  -19.2312 C   0  0  0  0  0  0
  -14.7100   16.4046  -18.8622 N   0  0  0  0  0  0
  -18.0529   15.8469  -17.3214 C   0  0  0  0  0  0
  -18.9532   15.1156  -17.4760 O   0  0  0  0  0  0
  1  2  1  0  0  0
  2  3  1  0  0  0
  3  4  1  0  0  0
  4  5  1  0  0  0
  5  6  1  0  0  0
  6  7  1  0  0  0
  7  8  1  0  0  0
  8  9  1  0  0  0
  9 10  1  0  0  0
  9 23  1  0  0  0
 10 11  2  0  0  0
 10 12  1  0  0  0
 12 13  1  0  0  0
 12 14  1  0  0  0
 14 15  1  0  0  0
 14 22  1  0  0  0
 15 16  1  0  0  0
 15 23  1  0  0  0
 16 17  1  0  0  0
 17 18  1  0  0  0
 18 19  1  0  0  0
 18 20  1  0  0  0
 20 21  1  0  0  0
 21 16  1  0  0  0
 21 22  1  0  0  0
 23 24  2  0  0  0
M  END
>  <CHROM.0>
-61.70194373,-167.15020939,-43.23202734,64.19808503,-30.62932074,58.84624768
83.63866806,-162.57069322

>  <CHROM.1>
-57.41459984,-71.73685650,-177.17230006,62.58076188,179.93654366,-170.06097652
-43.29925197,-18.17522241,16.92870438,-16.12078479,2.37017140,0.57918122
0.54559631

>  <Name>
F2705-0009

>  <RI>
3.3012e+07

>  <Rbt.Current_Directory>
/home/adria/Escritorio/rDock_CMTR_LC/2pxcA_model/inputs_sah

>  <Rbt.Executable>
rbdock ($Id: //depot/dev/client3/rdock/2013.1/src/exe/rbdock.cxx#4 $)

>  <Rbt.Library>
libRbt.so (2013.1, Build901 2013/11/27)

>  <Rbt.Parameter_File>
/home/adria/Escritorio/rDock_2013.1_src/data/scripts/dock.prm

>  <Rbt.Receptor>
sah_rdock.prm

>  <SCORE>
-175.581

>  <SCORE.INTER>
-9.03416

>  <SCORE.INTER.CONST>
1

>  <SCORE.INTER.POLAR>
-0.248632

>  <SCORE.INTER.REPUL>
0

>  <SCORE.INTER.ROT>
7

>  <SCORE.INTER.VDW>
-20.5888

>  <SCORE.INTER.norm>
-0.376423

>  <SCORE.INTRA>
-160.319

>  <SCORE.INTRA.DIHEDRAL>
-2.53511

>  <SCORE.INTRA.DIHEDRAL.0>
4.10568

>  <SCORE.INTRA.POLAR>
0

>  <SCORE.INTRA.POLAR.0>
0

>  <SCORE.INTRA.REPUL>
0

>  <SCORE.INTRA.REPUL.0>
0

>  <SCORE.INTRA.VDW>
-159.051

>  <SCORE.INTRA.VDW.0>
158.45

>  <SCORE.INTRA.norm>
-6.67995

>  <SCORE.RESTR>
0

>  <SCORE.RESTR.CAVITY>
0

>  <SCORE.RESTR.norm>
0

>  <SCORE.SYSTEM>
-6.22763

>  <SCORE.SYSTEM.CONST>
0

>  <SCORE.SYSTEM.DIHEDRAL>
6.66258

>  <SCORE.SYSTEM.POLAR>
-3.68766

>  <SCORE.SYSTEM.VDW>
2.97911

>  <SCORE.SYSTEM.norm>
-0.259485

>  <SCORE.heavy>
24

>  <SCORE.norm>
-7.31586

$$$$
F2705-0009
  rDOCK(R)          3D
libRbt.so/2013.1/901 2013/11/27
 24 26  0  0  0  0  0  0  0  0999 V2000
  -14.7060   20.2870  -16.6956 C   0  0  0  0  0  0
  -16.3103   19.6177  -16.3867 C   0  0  0  0  0  0
  -17.9838   20.5098  -15.7725 C   0  0  0  0  0  0
  -19.2553   19.8123  -15.5005 C   0  0  0  0  0  0
  -18.7378   19.1231  -14.3068 C   0  0  0  0  0  0
  -19.4933   17.6978  -14.1331 C   0  0  0  0  0  0
  -21.2509   17.5101  -13.8049 C   0  0  0  0  0  0
  -22.1964   18.0012  -12.2389 C   0  0  0  0  0  0
  -23.0789   19.5652  -11.8519 N   0  3  0  0  0  0
  -24.6600   19.9657  -11.9604 C   0  0  0  0  0  0
  -25.6695   19.3116  -12.2881 O   0  0  0  0  0  0
  -25.1266   21.1917  -11.8000 N   0  3  0  0  0  0
  -26.6025   21.3882  -11.7955 C   0  0  0  0  0  0
  -24.2215   22.1312  -11.6036 C   0  0  0  0  0  0
  -22.8703   21.8510  -11.6663 C   0  0  0  0  0  0
  -22.3732   23.0415  -11.4071 N   0  0  0  0  0  0
  -21.2034   23.7045  -11.2653 C   0  0  0  0  0  0
  -21.5964   24.9261  -10.8889 C   0  0  0  0  0  0
  -20.8596   26.1351  -10.5866 C   0  0  0  0  0  0
  -23.0012   25.0650  -10.7874 O   0  0  0  0  0  0
  -23.4185   23.8681  -11.1388 C   0  0  0  0  0  0
  -24.5906   23.3763  -11.2917 N   0  0  0  0  0  0
  -22.1569   20.6220  -11.8841 C   0  0  0  0  0  0
  -21.0110   20.5269  -12.1013 O   0  0  0  0  0  0
  1  2  1  0  0  0
  2  3  1  0  0  0
  3  4  1  0  0  0
  4  5  1  0  0  0
  5  6  1  0  0  0
  6  7  1  0  0  0
  7  8  1  0  0  0
  8  9  1  0  0  0
  9 10  1  0  0  0
  9 23  1  0  0  0
 10 11  2  0  0  0
 10 12  1  0  0  0
 12 13  1  0  0  0
 12 14  1  0  0  0
 14 15  1  0  0  0
 14 22  1  0  0  0
 15 16  1  0  0  0
 15 23  1  0  0  0
 16 17  1  0  0  0
 17 18  1  0  0  0
 18 19  1  0  0  0
 18 20  1  0  0  0
 20 21  1  0  0  0
 21 16  1  0  0  0
 21 22  1  0  0  0
 23 24  2  0  0  0
M  END
>  <CHROM.0>
-178.35010553,-66.87935548,-10.86813587,66.95816427,168.02508021,56.52051544
-156.20904893,-161.72888706

>  <CHROM.1>
-177.40505478,69.05566873,-149.90676392,-64.35147454,-67.12179805,92.88897763
97.22121502,-21.74668705,21.22489209,-12.64348663,-0.57598489,0.39840858
0.36372240

>  <Name>
F2705-0009

>  <RI>
3.3012e+07

>  <Rbt.Current_Directory>
/home/adria/Escritorio/rDock_CMTR_LC/2pxcA_model/inputs_sah

>  <Rbt.Executable>
rbdock ($Id: //depot/dev/client3/rdock/2013.1/src/exe/rbdock.cxx#4 $)

>  <Rbt.Library>
libRbt.so (2013.1, Build901 2013/11/27)

>  <Rbt.Parameter_File>
/home/adria/Escritorio/rDock_2013.1_src/data/scripts/dock.prm

>  <Rbt.Receptor>
sah_rdock.prm

>  <SCORE>
-167.183

>  <SCORE.INTER>
-7.33756

>  <SCORE.INTER.CONST>
1

>  <SCORE.INTER.POLAR>
-0.87178

>  <SCORE.INTER.REPUL>
0.06858

>  <SCORE.INTER.ROT>
7

>  <SCORE.INTER.VDW>
-17.1164

>  <SCORE.INTER.norm>
-0.305732

>  <SCORE.INTRA>
-157.769

>  <SCORE.INTRA.DIHEDRAL>
3.62256

>  <SCORE.INTRA.DIHEDRAL.0>
4.10568

>  <SCORE.INTRA.POLAR>
0

>  <SCORE.INTRA.POLAR.0>
0

>  <SCORE.INTRA.REPUL>
0

>  <SCORE.INTRA.REPUL.0>
0

>  <SCORE.INTRA.VDW>
-159.58

>  <SCORE.INTRA.VDW.0>
158.45

>  <SCORE.INTRA.norm>
-6.57371

>  <SCORE.RESTR>
0

>  <SCORE.RESTR.CAVITY>
0

>  <SCORE.RESTR.norm>
0

>  <SCORE.SYSTEM>
-2.07653

>  <SCORE.SYSTEM.CONST>
0

>  <SCORE.SYSTEM.DIHEDRAL>
6.20853

>  <SCORE.SYSTEM.POLAR>
-4.44651

>  <SCORE.SYSTEM.REPUL>
0.0258263

>  <SCORE.SYSTEM.VDW>
9.8082

>  <SCORE.SYSTEM.norm>
-0.0865219

>  <SCORE.heavy>
24

>  <SCORE.norm>
-6.96597

$$$$
F2705-0009
  rDOCK(R)          3D
libRbt.so/2013.1/901 2013/11/27
 24 26  0  0  0  0  0  0  0  0999 V2000
  -21.9312   25.8365  -11.0019 C   0  0  0  0  0  0
  -20.7954   24.4960  -11.1759 C   0  0  0  0  0  0
  -21.0779   22.6474  -11.8666 C   0  0  0  0  0  0
  -20.0470   21.5920  -11.8852 C   0  0  0  0  0  0
  -20.8736   20.6587  -12.6683 C   0  0  0  0  0  0
  -20.0154   19.3229  -13.0025 C   0  0  0  0  0  0
  -20.6180   17.9455  -13.9883 C   0  0  0  0  0  0
  -19.6296   16.4672  -14.6404 C   0  0  0  0  0  0
  -18.1355   16.4435  -15.7089 N   0  3  0  0  0  0
  -17.3005   15.2016  -16.3666 C   0  0  0  0  0  0
  -17.4818   13.9682  -16.3503 O   0  0  0  0  0  0
  -16.1397   15.3337  -16.9844 N   0  3  0  0  0  0
  -15.5564   14.1366  -17.6504 C   0  0  0  0  0  0
  -15.6280   16.5496  -16.9944 C   0  0  0  0  0  0
  -16.2296   17.5878  -16.3100 C   0  0  0  0  0  0
  -15.4042   18.5697  -16.6036 N   0  0  0  0  0  0
  -15.1919   19.8880  -16.3915 C   0  0  0  0  0  0
  -14.1342   20.1486  -17.1673 C   0  0  0  0  0  0
  -13.3747   21.3584  -17.4027 C   0  0  0  0  0  0
  -13.6573   19.0200  -17.8757 O   0  0  0  0  0  0
  -14.4769   18.0761  -17.4663 C   0  0  0  0  0  0
  -14.5324   16.8203  -17.7090 N   0  0  0  0  0  0
  -17.4407   17.6502  -15.5380 C   0  0  0  0  0  0
  -17.7646   18.5366  -14.8462 O   0  0  0  0  0  0
  1  2  1  0  0  0
  2  3  1  0  0  0
  3  4  1  0  0  0
  4  5  1  0  0  0
  5  6  1  0  0  0
  6  7  1  0  0  0
  7  8  1  0  0  0
  8  9  1  0  0  0
  9 10  1  0  0  0
  9 23  1  0  0  0
 10 11  2  0  0  0
 10 12  1  0  0  0
 12 13  1  0  0  0
 12 14  1  0  0  0
 14 15  1  0  0  0
 14 22  1  0  0  0
 15 16  1  0  0  0
 15 23  1  0  0  0
 16 17  1  0  0  0
 17 18  1  0  0  0
 18 19  1  0  0  0
 18 20  1  0  0  0
 20 21  1  0  0  0
 21 16  1  0  0  0
 21 22  1  0  0  0
 23 24  2  0  0  0
M  END
>  <CHROM.0>
-57.48205996,-75.51562305,75.92181050,63.20689481,168.66150686,179.74526501
-36.55677252,-164.23801691

>  <CHROM.1>
-176.29055065,-172.20199237,176.39345136,-177.77231814,170.50481098,-57.07603291
-175.96277419,-17.39788382,18.70113655,-15.30713989,-2.29831128,-0.57239426
-2.88426664

>  <Name>
F2705-0009

>  <RI>
3.3012e+07

>  <Rbt.Current_Directory>
/home/adria/Escritorio/rDock_CMTR_LC/2pxcA_model/inputs_sah

>  <Rbt.Executable>
rbdock ($Id: //depot/dev/client3/rdock/2013.1/src/exe/rbdock.cxx#4 $)

>  <Rbt.Library>
libRbt.so (2013.1, Build901 2013/11/27)

>  <Rbt.Parameter_File>
/home/adria/Escritorio/rDock_2013.1_src/data/scripts/dock.prm

>  <Rbt.Receptor>
sah_rdock.prm

>  <SCORE>
-175.766

>  <SCORE.INTER>
-12.3513

>  <SCORE.INTER.CONST>
1

>  <SCORE.INTER.POLAR>
-0.894427

>  <SCORE.INTER.REPUL>
0.0217635

>  <SCORE.INTER.ROT>
7

>  <SCORE.INTER.VDW>
-21.819

>  <SCORE.INTER.norm>
-0.514636

>  <SCORE.INTRA>
-160.562

>  <SCORE.INTRA.DIHEDRAL>
-2.57652

>  <SCORE.INTRA.DIHEDRAL.0>
4.10568

>  <SCORE.INTRA.POLAR>
0

>  <SCORE.INTRA.POLAR.0>
0

>  <SCORE.INTRA.REPUL>
0

>  <SCORE.INTRA.REPUL.0>
0

>  <SCORE.INTRA.VDW>
-159.274

>  <SCORE.INTRA.VDW.0>
158.45

>  <SCORE.INTRA.norm>
-6.6901

>  <SCORE.RESTR>
0

>  <SCORE.RESTR.CAVITY>
0

>  <SCORE.RESTR.norm>
0

>  <SCORE.SYSTEM>
-2.85256

>  <SCORE.SYSTEM.CONST>
0

>  <SCORE.SYSTEM.DIHEDRAL>
3.96059

>  <SCORE.SYSTEM.POLAR>
-4.04153

>  <SCORE.SYSTEM.REPUL>
0.0427151

>  <SCORE.SYSTEM.VDW>
8.69476

>  <SCORE.SYSTEM.norm>
-0.118857

>  <SCORE.heavy>
24

>  <SCORE.norm>
-7.3236

$$$$
